<routes>
    <vType accel="1.0" decel="5.0" id="Car" length="2.0" maxSpeed="100.0" sigma="0.0" />
    <route id="route0" edges="1to2 2to13 13to14 14to15"/>
    <vehicle depart="1" id="veh0" route="route0" type="Car" color="1,0,0" />
    <vehicle depart="1" id="veh1" route="route0" type="Car" color="0,1,0"/>
    <vehicle depart="1" id="veh2" route="route0" type="Car" color="0,0,1"/>
</routes>