<?xml version="1.0" encoding="UTF-8"?>
<edges>
	<edge id="1to2" from="1" to="2" numLanes="3" />
	<edge id="2to1" from="2" to="1" numLanes="3" />
	<edge id="2to3" from="2" to="3" numLanes="3" />
	<edge id="3to2" from="3" to="2" numLanes="3" />
	<edge id="3to4" from="3" to="4" numLanes="3" />
	<edge id="4to3" from="4" to="3" numLanes="3" />
	<edge id="4to5" from="4" to="5" numLanes="3" />
	<edge id="5to4" from="5" to="4" numLanes="3" />
	<edge id="5to6" from="5" to="6" numLanes="3" />
	<edge id="6to5" from="6" to="5" numLanes="3" />
	<edge id="6to7" from="6" to="7" numLanes="3" />
	<edge id="7to6" from="7" to="6" numLanes="3" />
	<edge id="7to8" from="7" to="8" numLanes="3" />
	<edge id="8to7" from="8" to="7" numLanes="3" />
	<edge id="8to9" from="8" to="9" numLanes="3" />
	<edge id="9to8" from="9" to="8" numLanes="3" />
	<edge id="9to10" from="9" to="10" numLanes="3" />
	<edge id="10to9" from="10" to="9" numLanes="3" />
	<edge id="10to11" from="10" to="11" numLanes="3" />
	<edge id="11to10" from="11" to="10" numLanes="3" />
	<edge id="12to13" from="12" to="13" numLanes="3" />
	<edge id="13to12" from="13" to="12" numLanes="3" />
	<edge id="13to14" from="13" to="14" numLanes="3" />
	<edge id="14to13" from="14" to="13" numLanes="3" />
	<edge id="14to15" from="14" to="15" numLanes="3" />
	<edge id="15to14" from="15" to="14" numLanes="3" />
	<edge id="15to16" from="15" to="16" numLanes="3" />
	<edge id="16to15" from="16" to="15" numLanes="3" />
	<edge id="16to17" from="16" to="17" numLanes="3" />
	<edge id="17to16" from="17" to="16" numLanes="3" />
	<edge id="17to18" from="17" to="18" numLanes="3" />
	<edge id="18to17" from="18" to="17" numLanes="3" />
	<edge id="18to19" from="18" to="19" numLanes="3" />
	<edge id="19to18" from="19" to="18" numLanes="3" />
	<edge id="19to20" from="19" to="20" numLanes="3" />
	<edge id="20to19" from="20" to="19" numLanes="3" />
	<edge id="20to21" from="20" to="21" numLanes="3" />
	<edge id="21to20" from="21" to="20" numLanes="3" />
	<edge id="21to22" from="21" to="22" numLanes="3" />
	<edge id="22to21" from="22" to="21" numLanes="3" />
	<edge id="23to24" from="23" to="24" numLanes="3" />
	<edge id="24to23" from="24" to="23" numLanes="3" />
	<edge id="24to25" from="24" to="25" numLanes="3" />
	<edge id="25to24" from="25" to="24" numLanes="3" />
	<edge id="25to26" from="25" to="26" numLanes="3" />
	<edge id="26to25" from="26" to="25" numLanes="3" />
	<edge id="26to27" from="26" to="27" numLanes="3" />
	<edge id="27to26" from="27" to="26" numLanes="3" />
	<edge id="27to28" from="27" to="28" numLanes="3" />
	<edge id="28to27" from="28" to="27" numLanes="3" />
	<edge id="28to29" from="28" to="29" numLanes="3" />
	<edge id="29to28" from="29" to="28" numLanes="3" />
	<edge id="29to30" from="29" to="30" numLanes="3" />
	<edge id="30to29" from="30" to="29" numLanes="3" />
	<edge id="30to31" from="30" to="31" numLanes="3" />
	<edge id="31to30" from="31" to="30" numLanes="3" />
	<edge id="31to32" from="31" to="32" numLanes="3" />
	<edge id="32to31" from="32" to="31" numLanes="3" />
	<edge id="32to33" from="32" to="33" numLanes="3" />
	<edge id="33to32" from="33" to="32" numLanes="3" />
	<edge id="34to35" from="34" to="35" numLanes="3" />
	<edge id="35to34" from="35" to="34" numLanes="3" />
	<edge id="35to36" from="35" to="36" numLanes="3" />
	<edge id="36to35" from="36" to="35" numLanes="3" />
	<edge id="36to37" from="36" to="37" numLanes="3" />
	<edge id="37to36" from="37" to="36" numLanes="3" />
	<edge id="37to38" from="37" to="38" numLanes="3" />
	<edge id="38to37" from="38" to="37" numLanes="3" />
	<edge id="38to39" from="38" to="39" numLanes="3" />
	<edge id="39to38" from="39" to="38" numLanes="3" />
	<edge id="39to40" from="39" to="40" numLanes="3" />
	<edge id="40to39" from="40" to="39" numLanes="3" />
	<edge id="40to41" from="40" to="41" numLanes="3" />
	<edge id="41to40" from="41" to="40" numLanes="3" />
	<edge id="41to42" from="41" to="42" numLanes="3" />
	<edge id="42to41" from="42" to="41" numLanes="3" />
	<edge id="42to43" from="42" to="43" numLanes="3" />
	<edge id="43to42" from="43" to="42" numLanes="3" />
	<edge id="43to44" from="43" to="44" numLanes="3" />
	<edge id="44to43" from="44" to="43" numLanes="3" />
	<edge id="45to46" from="45" to="46" numLanes="3" />
	<edge id="46to45" from="46" to="45" numLanes="3" />
	<edge id="46to47" from="46" to="47" numLanes="3" />
	<edge id="47to46" from="47" to="46" numLanes="3" />
	<edge id="47to48" from="47" to="48" numLanes="3" />
	<edge id="48to47" from="48" to="47" numLanes="3" />
	<edge id="48to49" from="48" to="49" numLanes="3" />
	<edge id="49to48" from="49" to="48" numLanes="3" />
	<edge id="49to50" from="49" to="50" numLanes="3" />
	<edge id="50to49" from="50" to="49" numLanes="3" />
	<edge id="50to51" from="50" to="51" numLanes="3" />
	<edge id="51to50" from="51" to="50" numLanes="3" />
	<edge id="51to52" from="51" to="52" numLanes="3" />
	<edge id="52to51" from="52" to="51" numLanes="3" />
	<edge id="52to53" from="52" to="53" numLanes="3" />
	<edge id="53to52" from="53" to="52" numLanes="3" />
	<edge id="53to54" from="53" to="54" numLanes="3" />
	<edge id="54to53" from="54" to="53" numLanes="3" />
	<edge id="54to55" from="54" to="55" numLanes="3" />
	<edge id="55to54" from="55" to="54" numLanes="3" />
	<edge id="56to57" from="56" to="57" numLanes="3" />
	<edge id="57to56" from="57" to="56" numLanes="3" />
	<edge id="57to58" from="57" to="58" numLanes="3" />
	<edge id="58to57" from="58" to="57" numLanes="3" />
	<edge id="58to59" from="58" to="59" numLanes="3" />
	<edge id="59to58" from="59" to="58" numLanes="3" />
	<edge id="59to60" from="59" to="60" numLanes="3" />
	<edge id="60to59" from="60" to="59" numLanes="3" />
	<edge id="60to61" from="60" to="61" numLanes="3" />
	<edge id="61to60" from="61" to="60" numLanes="3" />
	<edge id="61to62" from="61" to="62" numLanes="3" />
	<edge id="62to61" from="62" to="61" numLanes="3" />
	<edge id="62to63" from="62" to="63" numLanes="3" />
	<edge id="63to62" from="63" to="62" numLanes="3" />
	<edge id="63to64" from="63" to="64" numLanes="3" />
	<edge id="64to63" from="64" to="63" numLanes="3" />
	<edge id="64to65" from="64" to="65" numLanes="3" />
	<edge id="65to64" from="65" to="64" numLanes="3" />
	<edge id="65to66" from="65" to="66" numLanes="3" />
	<edge id="66to65" from="66" to="65" numLanes="3" />
	<edge id="67to68" from="67" to="68" numLanes="3" />
	<edge id="68to67" from="68" to="67" numLanes="3" />
	<edge id="68to69" from="68" to="69" numLanes="3" />
	<edge id="69to68" from="69" to="68" numLanes="3" />
	<edge id="69to70" from="69" to="70" numLanes="3" />
	<edge id="70to69" from="70" to="69" numLanes="3" />
	<edge id="70to71" from="70" to="71" numLanes="3" />
	<edge id="71to70" from="71" to="70" numLanes="3" />
	<edge id="71to72" from="71" to="72" numLanes="3" />
	<edge id="72to71" from="72" to="71" numLanes="3" />
	<edge id="72to73" from="72" to="73" numLanes="3" />
	<edge id="73to72" from="73" to="72" numLanes="3" />
	<edge id="73to74" from="73" to="74" numLanes="3" />
	<edge id="74to73" from="74" to="73" numLanes="3" />
	<edge id="74to75" from="74" to="75" numLanes="3" />
	<edge id="75to74" from="75" to="74" numLanes="3" />
	<edge id="75to76" from="75" to="76" numLanes="3" />
	<edge id="76to75" from="76" to="75" numLanes="3" />
	<edge id="76to77" from="76" to="77" numLanes="3" />
	<edge id="77to76" from="77" to="76" numLanes="3" />
	<edge id="78to79" from="78" to="79" numLanes="3" />
	<edge id="79to78" from="79" to="78" numLanes="3" />
	<edge id="79to80" from="79" to="80" numLanes="3" />
	<edge id="80to79" from="80" to="79" numLanes="3" />
	<edge id="80to81" from="80" to="81" numLanes="3" />
	<edge id="81to80" from="81" to="80" numLanes="3" />
	<edge id="81to82" from="81" to="82" numLanes="3" />
	<edge id="82to81" from="82" to="81" numLanes="3" />
	<edge id="82to83" from="82" to="83" numLanes="3" />
	<edge id="83to82" from="83" to="82" numLanes="3" />
	<edge id="83to84" from="83" to="84" numLanes="3" />
	<edge id="84to83" from="84" to="83" numLanes="3" />
	<edge id="84to85" from="84" to="85" numLanes="3" />
	<edge id="85to84" from="85" to="84" numLanes="3" />
	<edge id="85to86" from="85" to="86" numLanes="3" />
	<edge id="86to85" from="86" to="85" numLanes="3" />
	<edge id="86to87" from="86" to="87" numLanes="3" />
	<edge id="87to86" from="87" to="86" numLanes="3" />
	<edge id="87to88" from="87" to="88" numLanes="3" />
	<edge id="88to87" from="88" to="87" numLanes="3" />
	<edge id="89to90" from="89" to="90" numLanes="3" />
	<edge id="90to89" from="90" to="89" numLanes="3" />
	<edge id="90to91" from="90" to="91" numLanes="3" />
	<edge id="91to90" from="91" to="90" numLanes="3" />
	<edge id="91to92" from="91" to="92" numLanes="3" />
	<edge id="92to91" from="92" to="91" numLanes="3" />
	<edge id="92to93" from="92" to="93" numLanes="3" />
	<edge id="93to92" from="93" to="92" numLanes="3" />
	<edge id="93to94" from="93" to="94" numLanes="3" />
	<edge id="94to93" from="94" to="93" numLanes="3" />
	<edge id="94to95" from="94" to="95" numLanes="3" />
	<edge id="95to94" from="95" to="94" numLanes="3" />
	<edge id="95to96" from="95" to="96" numLanes="3" />
	<edge id="96to95" from="96" to="95" numLanes="3" />
	<edge id="96to97" from="96" to="97" numLanes="3" />
	<edge id="97to96" from="97" to="96" numLanes="3" />
	<edge id="97to98" from="97" to="98" numLanes="3" />
	<edge id="98to97" from="98" to="97" numLanes="3" />
	<edge id="98to99" from="98" to="99" numLanes="3" />
	<edge id="99to98" from="99" to="98" numLanes="3" />
	<edge id="100to101" from="100" to="101" numLanes="3" />
	<edge id="101to100" from="101" to="100" numLanes="3" />
	<edge id="101to102" from="101" to="102" numLanes="3" />
	<edge id="102to101" from="102" to="101" numLanes="3" />
	<edge id="102to103" from="102" to="103" numLanes="3" />
	<edge id="103to102" from="103" to="102" numLanes="3" />
	<edge id="103to104" from="103" to="104" numLanes="3" />
	<edge id="104to103" from="104" to="103" numLanes="3" />
	<edge id="104to105" from="104" to="105" numLanes="3" />
	<edge id="105to104" from="105" to="104" numLanes="3" />
	<edge id="105to106" from="105" to="106" numLanes="3" />
	<edge id="106to105" from="106" to="105" numLanes="3" />
	<edge id="106to107" from="106" to="107" numLanes="3" />
	<edge id="107to106" from="107" to="106" numLanes="3" />
	<edge id="107to108" from="107" to="108" numLanes="3" />
	<edge id="108to107" from="108" to="107" numLanes="3" />
	<edge id="108to109" from="108" to="109" numLanes="3" />
	<edge id="109to108" from="109" to="108" numLanes="3" />
	<edge id="109to110" from="109" to="110" numLanes="3" />
	<edge id="110to109" from="110" to="109" numLanes="3" />
	<edge id="111to112" from="111" to="112" numLanes="3" />
	<edge id="112to111" from="112" to="111" numLanes="3" />
	<edge id="112to113" from="112" to="113" numLanes="3" />
	<edge id="113to112" from="113" to="112" numLanes="3" />
	<edge id="113to114" from="113" to="114" numLanes="3" />
	<edge id="114to113" from="114" to="113" numLanes="3" />
	<edge id="114to115" from="114" to="115" numLanes="3" />
	<edge id="115to114" from="115" to="114" numLanes="3" />
	<edge id="115to116" from="115" to="116" numLanes="3" />
	<edge id="116to115" from="116" to="115" numLanes="3" />
	<edge id="116to117" from="116" to="117" numLanes="3" />
	<edge id="117to116" from="117" to="116" numLanes="3" />
	<edge id="117to118" from="117" to="118" numLanes="3" />
	<edge id="118to117" from="118" to="117" numLanes="3" />
	<edge id="118to119" from="118" to="119" numLanes="3" />
	<edge id="119to118" from="119" to="118" numLanes="3" />
	<edge id="119to120" from="119" to="120" numLanes="3" />
	<edge id="120to119" from="120" to="119" numLanes="3" />
	<edge id="120to121" from="120" to="121" numLanes="3" />
	<edge id="121to120" from="121" to="120" numLanes="3" />
	<edge id="1to12" from="1" to="12" numLanes="3" />
	<edge id="12to1" from="12" to="1" numLanes="3" />
	<edge id="2to13" from="2" to="13" numLanes="3" />
	<edge id="13to2" from="13" to="2" numLanes="3" />
	<edge id="3to14" from="3" to="14" numLanes="3" />
	<edge id="14to3" from="14" to="3" numLanes="3" />
	<edge id="4to15" from="4" to="15" numLanes="3" />
	<edge id="15to4" from="15" to="4" numLanes="3" />
	<edge id="5to16" from="5" to="16" numLanes="3" />
	<edge id="16to5" from="16" to="5" numLanes="3" />
	<edge id="6to17" from="6" to="17" numLanes="3" />
	<edge id="17to6" from="17" to="6" numLanes="3" />
	<edge id="7to18" from="7" to="18" numLanes="3" />
	<edge id="18to7" from="18" to="7" numLanes="3" />
	<edge id="8to19" from="8" to="19" numLanes="3" />
	<edge id="19to8" from="19" to="8" numLanes="3" />
	<edge id="9to20" from="9" to="20" numLanes="3" />
	<edge id="20to9" from="20" to="9" numLanes="3" />
	<edge id="10to21" from="10" to="21" numLanes="3" />
	<edge id="21to10" from="21" to="10" numLanes="3" />
	<edge id="11to22" from="11" to="22" numLanes="3" />
	<edge id="22to11" from="22" to="11" numLanes="3" />
	<edge id="12to23" from="12" to="23" numLanes="3" />
	<edge id="23to12" from="23" to="12" numLanes="3" />
	<edge id="13to24" from="13" to="24" numLanes="3" />
	<edge id="24to13" from="24" to="13" numLanes="3" />
	<edge id="14to25" from="14" to="25" numLanes="3" />
	<edge id="25to14" from="25" to="14" numLanes="3" />
	<edge id="15to26" from="15" to="26" numLanes="3" />
	<edge id="26to15" from="26" to="15" numLanes="3" />
	<edge id="16to27" from="16" to="27" numLanes="3" />
	<edge id="27to16" from="27" to="16" numLanes="3" />
	<edge id="17to28" from="17" to="28" numLanes="3" />
	<edge id="28to17" from="28" to="17" numLanes="3" />
	<edge id="18to29" from="18" to="29" numLanes="3" />
	<edge id="29to18" from="29" to="18" numLanes="3" />
	<edge id="19to30" from="19" to="30" numLanes="3" />
	<edge id="30to19" from="30" to="19" numLanes="3" />
	<edge id="20to31" from="20" to="31" numLanes="3" />
	<edge id="31to20" from="31" to="20" numLanes="3" />
	<edge id="21to32" from="21" to="32" numLanes="3" />
	<edge id="32to21" from="32" to="21" numLanes="3" />
	<edge id="22to33" from="22" to="33" numLanes="3" />
	<edge id="33to22" from="33" to="22" numLanes="3" />
	<edge id="23to34" from="23" to="34" numLanes="3" />
	<edge id="34to23" from="34" to="23" numLanes="3" />
	<edge id="24to35" from="24" to="35" numLanes="3" />
	<edge id="35to24" from="35" to="24" numLanes="3" />
	<edge id="25to36" from="25" to="36" numLanes="3" />
	<edge id="36to25" from="36" to="25" numLanes="3" />
	<edge id="26to37" from="26" to="37" numLanes="3" />
	<edge id="37to26" from="37" to="26" numLanes="3" />
	<edge id="27to38" from="27" to="38" numLanes="3" />
	<edge id="38to27" from="38" to="27" numLanes="3" />
	<edge id="28to39" from="28" to="39" numLanes="3" />
	<edge id="39to28" from="39" to="28" numLanes="3" />
	<edge id="29to40" from="29" to="40" numLanes="3" />
	<edge id="40to29" from="40" to="29" numLanes="3" />
	<edge id="30to41" from="30" to="41" numLanes="3" />
	<edge id="41to30" from="41" to="30" numLanes="3" />
	<edge id="31to42" from="31" to="42" numLanes="3" />
	<edge id="42to31" from="42" to="31" numLanes="3" />
	<edge id="32to43" from="32" to="43" numLanes="3" />
	<edge id="43to32" from="43" to="32" numLanes="3" />
	<edge id="33to44" from="33" to="44" numLanes="3" />
	<edge id="44to33" from="44" to="33" numLanes="3" />
	<edge id="34to45" from="34" to="45" numLanes="3" />
	<edge id="45to34" from="45" to="34" numLanes="3" />
	<edge id="35to46" from="35" to="46" numLanes="3" />
	<edge id="46to35" from="46" to="35" numLanes="3" />
	<edge id="36to47" from="36" to="47" numLanes="3" />
	<edge id="47to36" from="47" to="36" numLanes="3" />
	<edge id="37to48" from="37" to="48" numLanes="3" />
	<edge id="48to37" from="48" to="37" numLanes="3" />
	<edge id="38to49" from="38" to="49" numLanes="3" />
	<edge id="49to38" from="49" to="38" numLanes="3" />
	<edge id="39to50" from="39" to="50" numLanes="3" />
	<edge id="50to39" from="50" to="39" numLanes="3" />
	<edge id="40to51" from="40" to="51" numLanes="3" />
	<edge id="51to40" from="51" to="40" numLanes="3" />
	<edge id="41to52" from="41" to="52" numLanes="3" />
	<edge id="52to41" from="52" to="41" numLanes="3" />
	<edge id="42to53" from="42" to="53" numLanes="3" />
	<edge id="53to42" from="53" to="42" numLanes="3" />
	<edge id="43to54" from="43" to="54" numLanes="3" />
	<edge id="54to43" from="54" to="43" numLanes="3" />
	<edge id="44to55" from="44" to="55" numLanes="3" />
	<edge id="55to44" from="55" to="44" numLanes="3" />
	<edge id="45to56" from="45" to="56" numLanes="3" />
	<edge id="56to45" from="56" to="45" numLanes="3" />
	<edge id="46to57" from="46" to="57" numLanes="3" />
	<edge id="57to46" from="57" to="46" numLanes="3" />
	<edge id="47to58" from="47" to="58" numLanes="3" />
	<edge id="58to47" from="58" to="47" numLanes="3" />
	<edge id="48to59" from="48" to="59" numLanes="3" />
	<edge id="59to48" from="59" to="48" numLanes="3" />
	<edge id="49to60" from="49" to="60" numLanes="3" />
	<edge id="60to49" from="60" to="49" numLanes="3" />
	<edge id="50to61" from="50" to="61" numLanes="3" />
	<edge id="61to50" from="61" to="50" numLanes="3" />
	<edge id="51to62" from="51" to="62" numLanes="3" />
	<edge id="62to51" from="62" to="51" numLanes="3" />
	<edge id="52to63" from="52" to="63" numLanes="3" />
	<edge id="63to52" from="63" to="52" numLanes="3" />
	<edge id="53to64" from="53" to="64" numLanes="3" />
	<edge id="64to53" from="64" to="53" numLanes="3" />
	<edge id="54to65" from="54" to="65" numLanes="3" />
	<edge id="65to54" from="65" to="54" numLanes="3" />
	<edge id="55to66" from="55" to="66" numLanes="3" />
	<edge id="66to55" from="66" to="55" numLanes="3" />
	<edge id="56to67" from="56" to="67" numLanes="3" />
	<edge id="67to56" from="67" to="56" numLanes="3" />
	<edge id="57to68" from="57" to="68" numLanes="3" />
	<edge id="68to57" from="68" to="57" numLanes="3" />
	<edge id="58to69" from="58" to="69" numLanes="3" />
	<edge id="69to58" from="69" to="58" numLanes="3" />
	<edge id="59to70" from="59" to="70" numLanes="3" />
	<edge id="70to59" from="70" to="59" numLanes="3" />
	<edge id="60to71" from="60" to="71" numLanes="3" />
	<edge id="71to60" from="71" to="60" numLanes="3" />
	<edge id="61to72" from="61" to="72" numLanes="3" />
	<edge id="72to61" from="72" to="61" numLanes="3" />
	<edge id="62to73" from="62" to="73" numLanes="3" />
	<edge id="73to62" from="73" to="62" numLanes="3" />
	<edge id="63to74" from="63" to="74" numLanes="3" />
	<edge id="74to63" from="74" to="63" numLanes="3" />
	<edge id="64to75" from="64" to="75" numLanes="3" />
	<edge id="75to64" from="75" to="64" numLanes="3" />
	<edge id="65to76" from="65" to="76" numLanes="3" />
	<edge id="76to65" from="76" to="65" numLanes="3" />
	<edge id="66to77" from="66" to="77" numLanes="3" />
	<edge id="77to66" from="77" to="66" numLanes="3" />
	<edge id="67to78" from="67" to="78" numLanes="3" />
	<edge id="78to67" from="78" to="67" numLanes="3" />
	<edge id="68to79" from="68" to="79" numLanes="3" />
	<edge id="79to68" from="79" to="68" numLanes="3" />
	<edge id="69to80" from="69" to="80" numLanes="3" />
	<edge id="80to69" from="80" to="69" numLanes="3" />
	<edge id="70to81" from="70" to="81" numLanes="3" />
	<edge id="81to70" from="81" to="70" numLanes="3" />
	<edge id="71to82" from="71" to="82" numLanes="3" />
	<edge id="82to71" from="82" to="71" numLanes="3" />
	<edge id="72to83" from="72" to="83" numLanes="3" />
	<edge id="83to72" from="83" to="72" numLanes="3" />
	<edge id="73to84" from="73" to="84" numLanes="3" />
	<edge id="84to73" from="84" to="73" numLanes="3" />
	<edge id="74to85" from="74" to="85" numLanes="3" />
	<edge id="85to74" from="85" to="74" numLanes="3" />
	<edge id="75to86" from="75" to="86" numLanes="3" />
	<edge id="86to75" from="86" to="75" numLanes="3" />
	<edge id="76to87" from="76" to="87" numLanes="3" />
	<edge id="87to76" from="87" to="76" numLanes="3" />
	<edge id="77to88" from="77" to="88" numLanes="3" />
	<edge id="88to77" from="88" to="77" numLanes="3" />
	<edge id="78to89" from="78" to="89" numLanes="3" />
	<edge id="89to78" from="89" to="78" numLanes="3" />
	<edge id="79to90" from="79" to="90" numLanes="3" />
	<edge id="90to79" from="90" to="79" numLanes="3" />
	<edge id="80to91" from="80" to="91" numLanes="3" />
	<edge id="91to80" from="91" to="80" numLanes="3" />
	<edge id="81to92" from="81" to="92" numLanes="3" />
	<edge id="92to81" from="92" to="81" numLanes="3" />
	<edge id="82to93" from="82" to="93" numLanes="3" />
	<edge id="93to82" from="93" to="82" numLanes="3" />
	<edge id="83to94" from="83" to="94" numLanes="3" />
	<edge id="94to83" from="94" to="83" numLanes="3" />
	<edge id="84to95" from="84" to="95" numLanes="3" />
	<edge id="95to84" from="95" to="84" numLanes="3" />
	<edge id="85to96" from="85" to="96" numLanes="3" />
	<edge id="96to85" from="96" to="85" numLanes="3" />
	<edge id="86to97" from="86" to="97" numLanes="3" />
	<edge id="97to86" from="97" to="86" numLanes="3" />
	<edge id="87to98" from="87" to="98" numLanes="3" />
	<edge id="98to87" from="98" to="87" numLanes="3" />
	<edge id="88to99" from="88" to="99" numLanes="3" />
	<edge id="99to88" from="99" to="88" numLanes="3" />
	<edge id="89to100" from="89" to="100" numLanes="3" />
	<edge id="100to89" from="100" to="89" numLanes="3" />
	<edge id="90to101" from="90" to="101" numLanes="3" />
	<edge id="101to90" from="101" to="90" numLanes="3" />
	<edge id="91to102" from="91" to="102" numLanes="3" />
	<edge id="102to91" from="102" to="91" numLanes="3" />
	<edge id="92to103" from="92" to="103" numLanes="3" />
	<edge id="103to92" from="103" to="92" numLanes="3" />
	<edge id="93to104" from="93" to="104" numLanes="3" />
	<edge id="104to93" from="104" to="93" numLanes="3" />
	<edge id="94to105" from="94" to="105" numLanes="3" />
	<edge id="105to94" from="105" to="94" numLanes="3" />
	<edge id="95to106" from="95" to="106" numLanes="3" />
	<edge id="106to95" from="106" to="95" numLanes="3" />
	<edge id="96to107" from="96" to="107" numLanes="3" />
	<edge id="107to96" from="107" to="96" numLanes="3" />
	<edge id="97to108" from="97" to="108" numLanes="3" />
	<edge id="108to97" from="108" to="97" numLanes="3" />
	<edge id="98to109" from="98" to="109" numLanes="3" />
	<edge id="109to98" from="109" to="98" numLanes="3" />
	<edge id="99to110" from="99" to="110" numLanes="3" />
	<edge id="110to99" from="110" to="99" numLanes="3" />
	<edge id="100to111" from="100" to="111" numLanes="3" />
	<edge id="111to100" from="111" to="100" numLanes="3" />
	<edge id="101to112" from="101" to="112" numLanes="3" />
	<edge id="112to101" from="112" to="101" numLanes="3" />
	<edge id="102to113" from="102" to="113" numLanes="3" />
	<edge id="113to102" from="113" to="102" numLanes="3" />
	<edge id="103to114" from="103" to="114" numLanes="3" />
	<edge id="114to103" from="114" to="103" numLanes="3" />
	<edge id="104to115" from="104" to="115" numLanes="3" />
	<edge id="115to104" from="115" to="104" numLanes="3" />
	<edge id="105to116" from="105" to="116" numLanes="3" />
	<edge id="116to105" from="116" to="105" numLanes="3" />
	<edge id="106to117" from="106" to="117" numLanes="3" />
	<edge id="117to106" from="117" to="106" numLanes="3" />
	<edge id="107to118" from="107" to="118" numLanes="3" />
	<edge id="118to107" from="118" to="107" numLanes="3" />
	<edge id="108to119" from="108" to="119" numLanes="3" />
	<edge id="119to108" from="119" to="108" numLanes="3" />
	<edge id="109to120" from="109" to="120" numLanes="3" />
	<edge id="120to109" from="120" to="109" numLanes="3" />
	<edge id="110to121" from="110" to="121" numLanes="3" />
	<edge id="121to110" from="121" to="110" numLanes="3" />
</edges>