<?xml version="1.0" encoding="UTF-8"?>
<nodes>
	<node id="1" x="10.0" y="10.0" />
	<node id="2" x="10.0" y="60.0" />
	<node id="3" x="10.0" y="110.0" />
	<node id="4" x="10.0" y="160.0" />
	<node id="5" x="10.0" y="210.0" />
	<node id="6" x="10.0" y="260.0" />
	<node id="7" x="10.0" y="310.0" />
	<node id="8" x="10.0" y="360.0" />
	<node id="9" x="10.0" y="410.0" />
	<node id="10" x="10.0" y="460.0" />
	<node id="11" x="10.0" y="510.0" />
	<node id="12" x="60.0" y="10.0" />
	<node id="13" x="60.0" y="60.0" />
	<node id="14" x="60.0" y="110.0" />
	<node id="15" x="60.0" y="160.0" />
	<node id="16" x="60.0" y="210.0" />
	<node id="17" x="60.0" y="260.0" />
	<node id="18" x="60.0" y="310.0" />
	<node id="19" x="60.0" y="360.0" />
	<node id="20" x="60.0" y="410.0" />
	<node id="21" x="60.0" y="460.0" />
	<node id="22" x="60.0" y="510.0" />
	<node id="23" x="110.0" y="10.0" />
	<node id="24" x="110.0" y="60.0" />
	<node id="25" x="110.0" y="110.0" />
	<node id="26" x="110.0" y="160.0" />
	<node id="27" x="110.0" y="210.0" />
	<node id="28" x="110.0" y="260.0" />
	<node id="29" x="110.0" y="310.0" />
	<node id="30" x="110.0" y="360.0" />
	<node id="31" x="110.0" y="410.0" />
	<node id="32" x="110.0" y="460.0" />
	<node id="33" x="110.0" y="510.0" />
	<node id="34" x="160.0" y="10.0" />
	<node id="35" x="160.0" y="60.0" />
	<node id="36" x="160.0" y="110.0" />
	<node id="37" x="160.0" y="160.0" />
	<node id="38" x="160.0" y="210.0" />
	<node id="39" x="160.0" y="260.0" />
	<node id="40" x="160.0" y="310.0" />
	<node id="41" x="160.0" y="360.0" />
	<node id="42" x="160.0" y="410.0" />
	<node id="43" x="160.0" y="460.0" />
	<node id="44" x="160.0" y="510.0" />
	<node id="45" x="210.0" y="10.0" />
	<node id="46" x="210.0" y="60.0" />
	<node id="47" x="210.0" y="110.0" />
	<node id="48" x="210.0" y="160.0" />
	<node id="49" x="210.0" y="210.0" />
	<node id="50" x="210.0" y="260.0" />
	<node id="51" x="210.0" y="310.0" />
	<node id="52" x="210.0" y="360.0" />
	<node id="53" x="210.0" y="410.0" />
	<node id="54" x="210.0" y="460.0" />
	<node id="55" x="210.0" y="510.0" />
	<node id="56" x="260.0" y="10.0" />
	<node id="57" x="260.0" y="60.0" />
	<node id="58" x="260.0" y="110.0" />
	<node id="59" x="260.0" y="160.0" />
	<node id="60" x="260.0" y="210.0" />
	<node id="61" x="260.0" y="260.0" />
	<node id="62" x="260.0" y="310.0" />
	<node id="63" x="260.0" y="360.0" />
	<node id="64" x="260.0" y="410.0" />
	<node id="65" x="260.0" y="460.0" />
	<node id="66" x="260.0" y="510.0" />
	<node id="67" x="310.0" y="10.0" />
	<node id="68" x="310.0" y="60.0" />
	<node id="69" x="310.0" y="110.0" />
	<node id="70" x="310.0" y="160.0" />
	<node id="71" x="310.0" y="210.0" />
	<node id="72" x="310.0" y="260.0" />
	<node id="73" x="310.0" y="310.0" />
	<node id="74" x="310.0" y="360.0" />
	<node id="75" x="310.0" y="410.0" />
	<node id="76" x="310.0" y="460.0" />
	<node id="77" x="310.0" y="510.0" />
	<node id="78" x="360.0" y="10.0" />
	<node id="79" x="360.0" y="60.0" />
	<node id="80" x="360.0" y="110.0" />
	<node id="81" x="360.0" y="160.0" />
	<node id="82" x="360.0" y="210.0" />
	<node id="83" x="360.0" y="260.0" />
	<node id="84" x="360.0" y="310.0" />
	<node id="85" x="360.0" y="360.0" />
	<node id="86" x="360.0" y="410.0" />
	<node id="87" x="360.0" y="460.0" />
	<node id="88" x="360.0" y="510.0" />
	<node id="89" x="410.0" y="10.0" />
	<node id="90" x="410.0" y="60.0" />
	<node id="91" x="410.0" y="110.0" />
	<node id="92" x="410.0" y="160.0" />
	<node id="93" x="410.0" y="210.0" />
	<node id="94" x="410.0" y="260.0" />
	<node id="95" x="410.0" y="310.0" />
	<node id="96" x="410.0" y="360.0" />
	<node id="97" x="410.0" y="410.0" />
	<node id="98" x="410.0" y="460.0" />
	<node id="99" x="410.0" y="510.0" />
	<node id="100" x="460.0" y="10.0" />
	<node id="101" x="460.0" y="60.0" />
	<node id="102" x="460.0" y="110.0" />
	<node id="103" x="460.0" y="160.0" />
	<node id="104" x="460.0" y="210.0" />
	<node id="105" x="460.0" y="260.0" />
	<node id="106" x="460.0" y="310.0" />
	<node id="107" x="460.0" y="360.0" />
	<node id="108" x="460.0" y="410.0" />
	<node id="109" x="460.0" y="460.0" />
	<node id="110" x="460.0" y="510.0" />
	<node id="111" x="510.0" y="10.0" />
	<node id="112" x="510.0" y="60.0" />
	<node id="113" x="510.0" y="110.0" />
	<node id="114" x="510.0" y="160.0" />
	<node id="115" x="510.0" y="210.0" />
	<node id="116" x="510.0" y="260.0" />
	<node id="117" x="510.0" y="310.0" />
	<node id="118" x="510.0" y="360.0" />
	<node id="119" x="510.0" y="410.0" />
	<node id="120" x="510.0" y="460.0" />
	<node id="121" x="510.0" y="510.0" />
</nodes>