<?xml version="1.0" encoding="UTF-8"?>
<edges>
	<edge id="001001to001002" from="001001" to="001002" numLanes="3" />
	<edge id="001002to001001" from="001002" to="001001" numLanes="3" />
	<edge id="001002to001003" from="001002" to="001003" numLanes="3" />
	<edge id="001003to001002" from="001003" to="001002" numLanes="3" />
	<edge id="001003to001004" from="001003" to="001004" numLanes="3" />
	<edge id="001004to001003" from="001004" to="001003" numLanes="3" />
	<edge id="001004to001005" from="001004" to="001005" numLanes="3" />
	<edge id="001005to001004" from="001005" to="001004" numLanes="3" />
	<edge id="001005to001006" from="001005" to="001006" numLanes="3" />
	<edge id="001006to001005" from="001006" to="001005" numLanes="3" />
	<edge id="001006to001007" from="001006" to="001007" numLanes="3" />
	<edge id="001007to001006" from="001007" to="001006" numLanes="3" />
	<edge id="001007to001008" from="001007" to="001008" numLanes="3" />
	<edge id="001008to001007" from="001008" to="001007" numLanes="3" />
	<edge id="001008to001009" from="001008" to="001009" numLanes="3" />
	<edge id="001009to001008" from="001009" to="001008" numLanes="3" />
	<edge id="001009to001010" from="001009" to="001010" numLanes="3" />
	<edge id="001010to001009" from="001010" to="001009" numLanes="3" />
	<edge id="001010to001011" from="001010" to="001011" numLanes="3" />
	<edge id="001011to001010" from="001011" to="001010" numLanes="3" />
	<edge id="002001to002002" from="002001" to="002002" numLanes="3" />
	<edge id="002002to002001" from="002002" to="002001" numLanes="3" />
	<edge id="002002to002003" from="002002" to="002003" numLanes="3" />
	<edge id="002003to002002" from="002003" to="002002" numLanes="3" />
	<edge id="002003to002004" from="002003" to="002004" numLanes="3" />
	<edge id="002004to002003" from="002004" to="002003" numLanes="3" />
	<edge id="002004to002005" from="002004" to="002005" numLanes="3" />
	<edge id="002005to002004" from="002005" to="002004" numLanes="3" />
	<edge id="002005to002006" from="002005" to="002006" numLanes="3" />
	<edge id="002006to002005" from="002006" to="002005" numLanes="3" />
	<edge id="002006to002007" from="002006" to="002007" numLanes="3" />
	<edge id="002007to002006" from="002007" to="002006" numLanes="3" />
	<edge id="002007to002008" from="002007" to="002008" numLanes="3" />
	<edge id="002008to002007" from="002008" to="002007" numLanes="3" />
	<edge id="002008to002009" from="002008" to="002009" numLanes="3" />
	<edge id="002009to002008" from="002009" to="002008" numLanes="3" />
	<edge id="002009to002010" from="002009" to="002010" numLanes="3" />
	<edge id="002010to002009" from="002010" to="002009" numLanes="3" />
	<edge id="002010to002011" from="002010" to="002011" numLanes="3" />
	<edge id="002011to002010" from="002011" to="002010" numLanes="3" />
	<edge id="003001to003002" from="003001" to="003002" numLanes="3" />
	<edge id="003002to003001" from="003002" to="003001" numLanes="3" />
	<edge id="003002to003003" from="003002" to="003003" numLanes="3" />
	<edge id="003003to003002" from="003003" to="003002" numLanes="3" />
	<edge id="003003to003004" from="003003" to="003004" numLanes="3" />
	<edge id="003004to003003" from="003004" to="003003" numLanes="3" />
	<edge id="003004to003005" from="003004" to="003005" numLanes="3" />
	<edge id="003005to003004" from="003005" to="003004" numLanes="3" />
	<edge id="003005to003006" from="003005" to="003006" numLanes="3" />
	<edge id="003006to003005" from="003006" to="003005" numLanes="3" />
	<edge id="003006to003007" from="003006" to="003007" numLanes="3" />
	<edge id="003007to003006" from="003007" to="003006" numLanes="3" />
	<edge id="003007to003008" from="003007" to="003008" numLanes="3" />
	<edge id="003008to003007" from="003008" to="003007" numLanes="3" />
	<edge id="003008to003009" from="003008" to="003009" numLanes="3" />
	<edge id="003009to003008" from="003009" to="003008" numLanes="3" />
	<edge id="003009to003010" from="003009" to="003010" numLanes="3" />
	<edge id="003010to003009" from="003010" to="003009" numLanes="3" />
	<edge id="003010to003011" from="003010" to="003011" numLanes="3" />
	<edge id="003011to003010" from="003011" to="003010" numLanes="3" />
	<edge id="004001to004002" from="004001" to="004002" numLanes="3" />
	<edge id="004002to004001" from="004002" to="004001" numLanes="3" />
	<edge id="004002to004003" from="004002" to="004003" numLanes="3" />
	<edge id="004003to004002" from="004003" to="004002" numLanes="3" />
	<edge id="004003to004004" from="004003" to="004004" numLanes="3" />
	<edge id="004004to004003" from="004004" to="004003" numLanes="3" />
	<edge id="004004to004005" from="004004" to="004005" numLanes="3" />
	<edge id="004005to004004" from="004005" to="004004" numLanes="3" />
	<edge id="004005to004006" from="004005" to="004006" numLanes="3" />
	<edge id="004006to004005" from="004006" to="004005" numLanes="3" />
	<edge id="004006to004007" from="004006" to="004007" numLanes="3" />
	<edge id="004007to004006" from="004007" to="004006" numLanes="3" />
	<edge id="004007to004008" from="004007" to="004008" numLanes="3" />
	<edge id="004008to004007" from="004008" to="004007" numLanes="3" />
	<edge id="004008to004009" from="004008" to="004009" numLanes="3" />
	<edge id="004009to004008" from="004009" to="004008" numLanes="3" />
	<edge id="004009to004010" from="004009" to="004010" numLanes="3" />
	<edge id="004010to004009" from="004010" to="004009" numLanes="3" />
	<edge id="004010to004011" from="004010" to="004011" numLanes="3" />
	<edge id="004011to004010" from="004011" to="004010" numLanes="3" />
	<edge id="005001to005002" from="005001" to="005002" numLanes="3" />
	<edge id="005002to005001" from="005002" to="005001" numLanes="3" />
	<edge id="005002to005003" from="005002" to="005003" numLanes="3" />
	<edge id="005003to005002" from="005003" to="005002" numLanes="3" />
	<edge id="005003to005004" from="005003" to="005004" numLanes="3" />
	<edge id="005004to005003" from="005004" to="005003" numLanes="3" />
	<edge id="005004to005005" from="005004" to="005005" numLanes="3" />
	<edge id="005005to005004" from="005005" to="005004" numLanes="3" />
	<edge id="005005to005006" from="005005" to="005006" numLanes="3" />
	<edge id="005006to005005" from="005006" to="005005" numLanes="3" />
	<edge id="005006to005007" from="005006" to="005007" numLanes="3" />
	<edge id="005007to005006" from="005007" to="005006" numLanes="3" />
	<edge id="005007to005008" from="005007" to="005008" numLanes="3" />
	<edge id="005008to005007" from="005008" to="005007" numLanes="3" />
	<edge id="005008to005009" from="005008" to="005009" numLanes="3" />
	<edge id="005009to005008" from="005009" to="005008" numLanes="3" />
	<edge id="005009to005010" from="005009" to="005010" numLanes="3" />
	<edge id="005010to005009" from="005010" to="005009" numLanes="3" />
	<edge id="005010to005011" from="005010" to="005011" numLanes="3" />
	<edge id="005011to005010" from="005011" to="005010" numLanes="3" />
	<edge id="006001to006002" from="006001" to="006002" numLanes="3" />
	<edge id="006002to006001" from="006002" to="006001" numLanes="3" />
	<edge id="006002to006003" from="006002" to="006003" numLanes="3" />
	<edge id="006003to006002" from="006003" to="006002" numLanes="3" />
	<edge id="006003to006004" from="006003" to="006004" numLanes="3" />
	<edge id="006004to006003" from="006004" to="006003" numLanes="3" />
	<edge id="006004to006005" from="006004" to="006005" numLanes="3" />
	<edge id="006005to006004" from="006005" to="006004" numLanes="3" />
	<edge id="006005to006006" from="006005" to="006006" numLanes="3" />
	<edge id="006006to006005" from="006006" to="006005" numLanes="3" />
	<edge id="006006to006007" from="006006" to="006007" numLanes="3" />
	<edge id="006007to006006" from="006007" to="006006" numLanes="3" />
	<edge id="006007to006008" from="006007" to="006008" numLanes="3" />
	<edge id="006008to006007" from="006008" to="006007" numLanes="3" />
	<edge id="006008to006009" from="006008" to="006009" numLanes="3" />
	<edge id="006009to006008" from="006009" to="006008" numLanes="3" />
	<edge id="006009to006010" from="006009" to="006010" numLanes="3" />
	<edge id="006010to006009" from="006010" to="006009" numLanes="3" />
	<edge id="006010to006011" from="006010" to="006011" numLanes="3" />
	<edge id="006011to006010" from="006011" to="006010" numLanes="3" />
	<edge id="007001to007002" from="007001" to="007002" numLanes="3" />
	<edge id="007002to007001" from="007002" to="007001" numLanes="3" />
	<edge id="007002to007003" from="007002" to="007003" numLanes="3" />
	<edge id="007003to007002" from="007003" to="007002" numLanes="3" />
	<edge id="007003to007004" from="007003" to="007004" numLanes="3" />
	<edge id="007004to007003" from="007004" to="007003" numLanes="3" />
	<edge id="007004to007005" from="007004" to="007005" numLanes="3" />
	<edge id="007005to007004" from="007005" to="007004" numLanes="3" />
	<edge id="007005to007006" from="007005" to="007006" numLanes="3" />
	<edge id="007006to007005" from="007006" to="007005" numLanes="3" />
	<edge id="007006to007007" from="007006" to="007007" numLanes="3" />
	<edge id="007007to007006" from="007007" to="007006" numLanes="3" />
	<edge id="007007to007008" from="007007" to="007008" numLanes="3" />
	<edge id="007008to007007" from="007008" to="007007" numLanes="3" />
	<edge id="007008to007009" from="007008" to="007009" numLanes="3" />
	<edge id="007009to007008" from="007009" to="007008" numLanes="3" />
	<edge id="007009to007010" from="007009" to="007010" numLanes="3" />
	<edge id="007010to007009" from="007010" to="007009" numLanes="3" />
	<edge id="007010to007011" from="007010" to="007011" numLanes="3" />
	<edge id="007011to007010" from="007011" to="007010" numLanes="3" />
	<edge id="008001to008002" from="008001" to="008002" numLanes="3" />
	<edge id="008002to008001" from="008002" to="008001" numLanes="3" />
	<edge id="008002to008003" from="008002" to="008003" numLanes="3" />
	<edge id="008003to008002" from="008003" to="008002" numLanes="3" />
	<edge id="008003to008004" from="008003" to="008004" numLanes="3" />
	<edge id="008004to008003" from="008004" to="008003" numLanes="3" />
	<edge id="008004to008005" from="008004" to="008005" numLanes="3" />
	<edge id="008005to008004" from="008005" to="008004" numLanes="3" />
	<edge id="008005to008006" from="008005" to="008006" numLanes="3" />
	<edge id="008006to008005" from="008006" to="008005" numLanes="3" />
	<edge id="008006to008007" from="008006" to="008007" numLanes="3" />
	<edge id="008007to008006" from="008007" to="008006" numLanes="3" />
	<edge id="008007to008008" from="008007" to="008008" numLanes="3" />
	<edge id="008008to008007" from="008008" to="008007" numLanes="3" />
	<edge id="008008to008009" from="008008" to="008009" numLanes="3" />
	<edge id="008009to008008" from="008009" to="008008" numLanes="3" />
	<edge id="008009to008010" from="008009" to="008010" numLanes="3" />
	<edge id="008010to008009" from="008010" to="008009" numLanes="3" />
	<edge id="008010to008011" from="008010" to="008011" numLanes="3" />
	<edge id="008011to008010" from="008011" to="008010" numLanes="3" />
	<edge id="009001to009002" from="009001" to="009002" numLanes="3" />
	<edge id="009002to009001" from="009002" to="009001" numLanes="3" />
	<edge id="009002to009003" from="009002" to="009003" numLanes="3" />
	<edge id="009003to009002" from="009003" to="009002" numLanes="3" />
	<edge id="009003to009004" from="009003" to="009004" numLanes="3" />
	<edge id="009004to009003" from="009004" to="009003" numLanes="3" />
	<edge id="009004to009005" from="009004" to="009005" numLanes="3" />
	<edge id="009005to009004" from="009005" to="009004" numLanes="3" />
	<edge id="009005to009006" from="009005" to="009006" numLanes="3" />
	<edge id="009006to009005" from="009006" to="009005" numLanes="3" />
	<edge id="009006to009007" from="009006" to="009007" numLanes="3" />
	<edge id="009007to009006" from="009007" to="009006" numLanes="3" />
	<edge id="009007to009008" from="009007" to="009008" numLanes="3" />
	<edge id="009008to009007" from="009008" to="009007" numLanes="3" />
	<edge id="009008to009009" from="009008" to="009009" numLanes="3" />
	<edge id="009009to009008" from="009009" to="009008" numLanes="3" />
	<edge id="009009to009010" from="009009" to="009010" numLanes="3" />
	<edge id="009010to009009" from="009010" to="009009" numLanes="3" />
	<edge id="009010to009011" from="009010" to="009011" numLanes="3" />
	<edge id="009011to009010" from="009011" to="009010" numLanes="3" />
	<edge id="010001to010002" from="010001" to="010002" numLanes="3" />
	<edge id="010002to010001" from="010002" to="010001" numLanes="3" />
	<edge id="010002to010003" from="010002" to="010003" numLanes="3" />
	<edge id="010003to010002" from="010003" to="010002" numLanes="3" />
	<edge id="010003to010004" from="010003" to="010004" numLanes="3" />
	<edge id="010004to010003" from="010004" to="010003" numLanes="3" />
	<edge id="010004to010005" from="010004" to="010005" numLanes="3" />
	<edge id="010005to010004" from="010005" to="010004" numLanes="3" />
	<edge id="010005to010006" from="010005" to="010006" numLanes="3" />
	<edge id="010006to010005" from="010006" to="010005" numLanes="3" />
	<edge id="010006to010007" from="010006" to="010007" numLanes="3" />
	<edge id="010007to010006" from="010007" to="010006" numLanes="3" />
	<edge id="010007to010008" from="010007" to="010008" numLanes="3" />
	<edge id="010008to010007" from="010008" to="010007" numLanes="3" />
	<edge id="010008to010009" from="010008" to="010009" numLanes="3" />
	<edge id="010009to010008" from="010009" to="010008" numLanes="3" />
	<edge id="010009to010010" from="010009" to="010010" numLanes="3" />
	<edge id="010010to010009" from="010010" to="010009" numLanes="3" />
	<edge id="010010to010011" from="010010" to="010011" numLanes="3" />
	<edge id="010011to010010" from="010011" to="010010" numLanes="3" />
	<edge id="011001to011002" from="011001" to="011002" numLanes="3" />
	<edge id="011002to011001" from="011002" to="011001" numLanes="3" />
	<edge id="011002to011003" from="011002" to="011003" numLanes="3" />
	<edge id="011003to011002" from="011003" to="011002" numLanes="3" />
	<edge id="011003to011004" from="011003" to="011004" numLanes="3" />
	<edge id="011004to011003" from="011004" to="011003" numLanes="3" />
	<edge id="011004to011005" from="011004" to="011005" numLanes="3" />
	<edge id="011005to011004" from="011005" to="011004" numLanes="3" />
	<edge id="011005to011006" from="011005" to="011006" numLanes="3" />
	<edge id="011006to011005" from="011006" to="011005" numLanes="3" />
	<edge id="011006to011007" from="011006" to="011007" numLanes="3" />
	<edge id="011007to011006" from="011007" to="011006" numLanes="3" />
	<edge id="011007to011008" from="011007" to="011008" numLanes="3" />
	<edge id="011008to011007" from="011008" to="011007" numLanes="3" />
	<edge id="011008to011009" from="011008" to="011009" numLanes="3" />
	<edge id="011009to011008" from="011009" to="011008" numLanes="3" />
	<edge id="011009to011010" from="011009" to="011010" numLanes="3" />
	<edge id="011010to011009" from="011010" to="011009" numLanes="3" />
	<edge id="011010to011011" from="011010" to="011011" numLanes="3" />
	<edge id="011011to011010" from="011011" to="011010" numLanes="3" />
	<edge id="001001to002001" from="001001" to="002001" numLanes="3" />
	<edge id="002001to001001" from="002001" to="001001" numLanes="3" />
	<edge id="001002to002002" from="001002" to="002002" numLanes="3" />
	<edge id="002002to001002" from="002002" to="001002" numLanes="3" />
	<edge id="001003to002003" from="001003" to="002003" numLanes="3" />
	<edge id="002003to001003" from="002003" to="001003" numLanes="3" />
	<edge id="001004to002004" from="001004" to="002004" numLanes="3" />
	<edge id="002004to001004" from="002004" to="001004" numLanes="3" />
	<edge id="001005to002005" from="001005" to="002005" numLanes="3" />
	<edge id="002005to001005" from="002005" to="001005" numLanes="3" />
	<edge id="001006to002006" from="001006" to="002006" numLanes="3" />
	<edge id="002006to001006" from="002006" to="001006" numLanes="3" />
	<edge id="001007to002007" from="001007" to="002007" numLanes="3" />
	<edge id="002007to001007" from="002007" to="001007" numLanes="3" />
	<edge id="001008to002008" from="001008" to="002008" numLanes="3" />
	<edge id="002008to001008" from="002008" to="001008" numLanes="3" />
	<edge id="001009to002009" from="001009" to="002009" numLanes="3" />
	<edge id="002009to001009" from="002009" to="001009" numLanes="3" />
	<edge id="001010to002010" from="001010" to="002010" numLanes="3" />
	<edge id="002010to001010" from="002010" to="001010" numLanes="3" />
	<edge id="001011to002011" from="001011" to="002011" numLanes="3" />
	<edge id="002011to001011" from="002011" to="001011" numLanes="3" />
	<edge id="002001to003001" from="002001" to="003001" numLanes="3" />
	<edge id="003001to002001" from="003001" to="002001" numLanes="3" />
	<edge id="002002to003002" from="002002" to="003002" numLanes="3" />
	<edge id="003002to002002" from="003002" to="002002" numLanes="3" />
	<edge id="002003to003003" from="002003" to="003003" numLanes="3" />
	<edge id="003003to002003" from="003003" to="002003" numLanes="3" />
	<edge id="002004to003004" from="002004" to="003004" numLanes="3" />
	<edge id="003004to002004" from="003004" to="002004" numLanes="3" />
	<edge id="002005to003005" from="002005" to="003005" numLanes="3" />
	<edge id="003005to002005" from="003005" to="002005" numLanes="3" />
	<edge id="002006to003006" from="002006" to="003006" numLanes="3" />
	<edge id="003006to002006" from="003006" to="002006" numLanes="3" />
	<edge id="002007to003007" from="002007" to="003007" numLanes="3" />
	<edge id="003007to002007" from="003007" to="002007" numLanes="3" />
	<edge id="002008to003008" from="002008" to="003008" numLanes="3" />
	<edge id="003008to002008" from="003008" to="002008" numLanes="3" />
	<edge id="002009to003009" from="002009" to="003009" numLanes="3" />
	<edge id="003009to002009" from="003009" to="002009" numLanes="3" />
	<edge id="002010to003010" from="002010" to="003010" numLanes="3" />
	<edge id="003010to002010" from="003010" to="002010" numLanes="3" />
	<edge id="002011to003011" from="002011" to="003011" numLanes="3" />
	<edge id="003011to002011" from="003011" to="002011" numLanes="3" />
	<edge id="003001to004001" from="003001" to="004001" numLanes="3" />
	<edge id="004001to003001" from="004001" to="003001" numLanes="3" />
	<edge id="003002to004002" from="003002" to="004002" numLanes="3" />
	<edge id="004002to003002" from="004002" to="003002" numLanes="3" />
	<edge id="003003to004003" from="003003" to="004003" numLanes="3" />
	<edge id="004003to003003" from="004003" to="003003" numLanes="3" />
	<edge id="003004to004004" from="003004" to="004004" numLanes="3" />
	<edge id="004004to003004" from="004004" to="003004" numLanes="3" />
	<edge id="003005to004005" from="003005" to="004005" numLanes="3" />
	<edge id="004005to003005" from="004005" to="003005" numLanes="3" />
	<edge id="003006to004006" from="003006" to="004006" numLanes="3" />
	<edge id="004006to003006" from="004006" to="003006" numLanes="3" />
	<edge id="003007to004007" from="003007" to="004007" numLanes="3" />
	<edge id="004007to003007" from="004007" to="003007" numLanes="3" />
	<edge id="003008to004008" from="003008" to="004008" numLanes="3" />
	<edge id="004008to003008" from="004008" to="003008" numLanes="3" />
	<edge id="003009to004009" from="003009" to="004009" numLanes="3" />
	<edge id="004009to003009" from="004009" to="003009" numLanes="3" />
	<edge id="003010to004010" from="003010" to="004010" numLanes="3" />
	<edge id="004010to003010" from="004010" to="003010" numLanes="3" />
	<edge id="003011to004011" from="003011" to="004011" numLanes="3" />
	<edge id="004011to003011" from="004011" to="003011" numLanes="3" />
	<edge id="004001to005001" from="004001" to="005001" numLanes="3" />
	<edge id="005001to004001" from="005001" to="004001" numLanes="3" />
	<edge id="004002to005002" from="004002" to="005002" numLanes="3" />
	<edge id="005002to004002" from="005002" to="004002" numLanes="3" />
	<edge id="004003to005003" from="004003" to="005003" numLanes="3" />
	<edge id="005003to004003" from="005003" to="004003" numLanes="3" />
	<edge id="004004to005004" from="004004" to="005004" numLanes="3" />
	<edge id="005004to004004" from="005004" to="004004" numLanes="3" />
	<edge id="004005to005005" from="004005" to="005005" numLanes="3" />
	<edge id="005005to004005" from="005005" to="004005" numLanes="3" />
	<edge id="004006to005006" from="004006" to="005006" numLanes="3" />
	<edge id="005006to004006" from="005006" to="004006" numLanes="3" />
	<edge id="004007to005007" from="004007" to="005007" numLanes="3" />
	<edge id="005007to004007" from="005007" to="004007" numLanes="3" />
	<edge id="004008to005008" from="004008" to="005008" numLanes="3" />
	<edge id="005008to004008" from="005008" to="004008" numLanes="3" />
	<edge id="004009to005009" from="004009" to="005009" numLanes="3" />
	<edge id="005009to004009" from="005009" to="004009" numLanes="3" />
	<edge id="004010to005010" from="004010" to="005010" numLanes="3" />
	<edge id="005010to004010" from="005010" to="004010" numLanes="3" />
	<edge id="004011to005011" from="004011" to="005011" numLanes="3" />
	<edge id="005011to004011" from="005011" to="004011" numLanes="3" />
	<edge id="005001to006001" from="005001" to="006001" numLanes="3" />
	<edge id="006001to005001" from="006001" to="005001" numLanes="3" />
	<edge id="005002to006002" from="005002" to="006002" numLanes="3" />
	<edge id="006002to005002" from="006002" to="005002" numLanes="3" />
	<edge id="005003to006003" from="005003" to="006003" numLanes="3" />
	<edge id="006003to005003" from="006003" to="005003" numLanes="3" />
	<edge id="005004to006004" from="005004" to="006004" numLanes="3" />
	<edge id="006004to005004" from="006004" to="005004" numLanes="3" />
	<edge id="005005to006005" from="005005" to="006005" numLanes="3" />
	<edge id="006005to005005" from="006005" to="005005" numLanes="3" />
	<edge id="005006to006006" from="005006" to="006006" numLanes="3" />
	<edge id="006006to005006" from="006006" to="005006" numLanes="3" />
	<edge id="005007to006007" from="005007" to="006007" numLanes="3" />
	<edge id="006007to005007" from="006007" to="005007" numLanes="3" />
	<edge id="005008to006008" from="005008" to="006008" numLanes="3" />
	<edge id="006008to005008" from="006008" to="005008" numLanes="3" />
	<edge id="005009to006009" from="005009" to="006009" numLanes="3" />
	<edge id="006009to005009" from="006009" to="005009" numLanes="3" />
	<edge id="005010to006010" from="005010" to="006010" numLanes="3" />
	<edge id="006010to005010" from="006010" to="005010" numLanes="3" />
	<edge id="005011to006011" from="005011" to="006011" numLanes="3" />
	<edge id="006011to005011" from="006011" to="005011" numLanes="3" />
	<edge id="006001to007001" from="006001" to="007001" numLanes="3" />
	<edge id="007001to006001" from="007001" to="006001" numLanes="3" />
	<edge id="006002to007002" from="006002" to="007002" numLanes="3" />
	<edge id="007002to006002" from="007002" to="006002" numLanes="3" />
	<edge id="006003to007003" from="006003" to="007003" numLanes="3" />
	<edge id="007003to006003" from="007003" to="006003" numLanes="3" />
	<edge id="006004to007004" from="006004" to="007004" numLanes="3" />
	<edge id="007004to006004" from="007004" to="006004" numLanes="3" />
	<edge id="006005to007005" from="006005" to="007005" numLanes="3" />
	<edge id="007005to006005" from="007005" to="006005" numLanes="3" />
	<edge id="006006to007006" from="006006" to="007006" numLanes="3" />
	<edge id="007006to006006" from="007006" to="006006" numLanes="3" />
	<edge id="006007to007007" from="006007" to="007007" numLanes="3" />
	<edge id="007007to006007" from="007007" to="006007" numLanes="3" />
	<edge id="006008to007008" from="006008" to="007008" numLanes="3" />
	<edge id="007008to006008" from="007008" to="006008" numLanes="3" />
	<edge id="006009to007009" from="006009" to="007009" numLanes="3" />
	<edge id="007009to006009" from="007009" to="006009" numLanes="3" />
	<edge id="006010to007010" from="006010" to="007010" numLanes="3" />
	<edge id="007010to006010" from="007010" to="006010" numLanes="3" />
	<edge id="006011to007011" from="006011" to="007011" numLanes="3" />
	<edge id="007011to006011" from="007011" to="006011" numLanes="3" />
	<edge id="007001to008001" from="007001" to="008001" numLanes="3" />
	<edge id="008001to007001" from="008001" to="007001" numLanes="3" />
	<edge id="007002to008002" from="007002" to="008002" numLanes="3" />
	<edge id="008002to007002" from="008002" to="007002" numLanes="3" />
	<edge id="007003to008003" from="007003" to="008003" numLanes="3" />
	<edge id="008003to007003" from="008003" to="007003" numLanes="3" />
	<edge id="007004to008004" from="007004" to="008004" numLanes="3" />
	<edge id="008004to007004" from="008004" to="007004" numLanes="3" />
	<edge id="007005to008005" from="007005" to="008005" numLanes="3" />
	<edge id="008005to007005" from="008005" to="007005" numLanes="3" />
	<edge id="007006to008006" from="007006" to="008006" numLanes="3" />
	<edge id="008006to007006" from="008006" to="007006" numLanes="3" />
	<edge id="007007to008007" from="007007" to="008007" numLanes="3" />
	<edge id="008007to007007" from="008007" to="007007" numLanes="3" />
	<edge id="007008to008008" from="007008" to="008008" numLanes="3" />
	<edge id="008008to007008" from="008008" to="007008" numLanes="3" />
	<edge id="007009to008009" from="007009" to="008009" numLanes="3" />
	<edge id="008009to007009" from="008009" to="007009" numLanes="3" />
	<edge id="007010to008010" from="007010" to="008010" numLanes="3" />
	<edge id="008010to007010" from="008010" to="007010" numLanes="3" />
	<edge id="007011to008011" from="007011" to="008011" numLanes="3" />
	<edge id="008011to007011" from="008011" to="007011" numLanes="3" />
	<edge id="008001to009001" from="008001" to="009001" numLanes="3" />
	<edge id="009001to008001" from="009001" to="008001" numLanes="3" />
	<edge id="008002to009002" from="008002" to="009002" numLanes="3" />
	<edge id="009002to008002" from="009002" to="008002" numLanes="3" />
	<edge id="008003to009003" from="008003" to="009003" numLanes="3" />
	<edge id="009003to008003" from="009003" to="008003" numLanes="3" />
	<edge id="008004to009004" from="008004" to="009004" numLanes="3" />
	<edge id="009004to008004" from="009004" to="008004" numLanes="3" />
	<edge id="008005to009005" from="008005" to="009005" numLanes="3" />
	<edge id="009005to008005" from="009005" to="008005" numLanes="3" />
	<edge id="008006to009006" from="008006" to="009006" numLanes="3" />
	<edge id="009006to008006" from="009006" to="008006" numLanes="3" />
	<edge id="008007to009007" from="008007" to="009007" numLanes="3" />
	<edge id="009007to008007" from="009007" to="008007" numLanes="3" />
	<edge id="008008to009008" from="008008" to="009008" numLanes="3" />
	<edge id="009008to008008" from="009008" to="008008" numLanes="3" />
	<edge id="008009to009009" from="008009" to="009009" numLanes="3" />
	<edge id="009009to008009" from="009009" to="008009" numLanes="3" />
	<edge id="008010to009010" from="008010" to="009010" numLanes="3" />
	<edge id="009010to008010" from="009010" to="008010" numLanes="3" />
	<edge id="008011to009011" from="008011" to="009011" numLanes="3" />
	<edge id="009011to008011" from="009011" to="008011" numLanes="3" />
	<edge id="009001to010001" from="009001" to="010001" numLanes="3" />
	<edge id="010001to009001" from="010001" to="009001" numLanes="3" />
	<edge id="009002to010002" from="009002" to="010002" numLanes="3" />
	<edge id="010002to009002" from="010002" to="009002" numLanes="3" />
	<edge id="009003to010003" from="009003" to="010003" numLanes="3" />
	<edge id="010003to009003" from="010003" to="009003" numLanes="3" />
	<edge id="009004to010004" from="009004" to="010004" numLanes="3" />
	<edge id="010004to009004" from="010004" to="009004" numLanes="3" />
	<edge id="009005to010005" from="009005" to="010005" numLanes="3" />
	<edge id="010005to009005" from="010005" to="009005" numLanes="3" />
	<edge id="009006to010006" from="009006" to="010006" numLanes="3" />
	<edge id="010006to009006" from="010006" to="009006" numLanes="3" />
	<edge id="009007to010007" from="009007" to="010007" numLanes="3" />
	<edge id="010007to009007" from="010007" to="009007" numLanes="3" />
	<edge id="009008to010008" from="009008" to="010008" numLanes="3" />
	<edge id="010008to009008" from="010008" to="009008" numLanes="3" />
	<edge id="009009to010009" from="009009" to="010009" numLanes="3" />
	<edge id="010009to009009" from="010009" to="009009" numLanes="3" />
	<edge id="009010to010010" from="009010" to="010010" numLanes="3" />
	<edge id="010010to009010" from="010010" to="009010" numLanes="3" />
	<edge id="009011to010011" from="009011" to="010011" numLanes="3" />
	<edge id="010011to009011" from="010011" to="009011" numLanes="3" />
	<edge id="010001to011001" from="010001" to="011001" numLanes="3" />
	<edge id="011001to010001" from="011001" to="010001" numLanes="3" />
	<edge id="010002to011002" from="010002" to="011002" numLanes="3" />
	<edge id="011002to010002" from="011002" to="010002" numLanes="3" />
	<edge id="010003to011003" from="010003" to="011003" numLanes="3" />
	<edge id="011003to010003" from="011003" to="010003" numLanes="3" />
	<edge id="010004to011004" from="010004" to="011004" numLanes="3" />
	<edge id="011004to010004" from="011004" to="010004" numLanes="3" />
	<edge id="010005to011005" from="010005" to="011005" numLanes="3" />
	<edge id="011005to010005" from="011005" to="010005" numLanes="3" />
	<edge id="010006to011006" from="010006" to="011006" numLanes="3" />
	<edge id="011006to010006" from="011006" to="010006" numLanes="3" />
	<edge id="010007to011007" from="010007" to="011007" numLanes="3" />
	<edge id="011007to010007" from="011007" to="010007" numLanes="3" />
	<edge id="010008to011008" from="010008" to="011008" numLanes="3" />
	<edge id="011008to010008" from="011008" to="010008" numLanes="3" />