<?xml version="1.0" encoding="UTF-8"?>

<!-- generated on 07/19/16 18:35:59 by SUMO netconvert Version 0.27.0
<?xml version="1.0" encoding="UTF-8"?>

<configuration xmlns:xsi="http://www.w3.org/2001/XMLSchema-instance" xsi:noNamespaceSchemaLocation="http://sumo.dlr.de/xsd/netconvertConfiguration.xsd">

    <input>
        <node-files value="basicnode.nod.xml"/>
        <edge-files value="basicnode.edg.xml"/>
    </input>

    <output>
        <output-file value="basicnode.net.xml"/>
    </output>

</configuration>
-->

<net version="0.27" xmlns:xsi="http://www.w3.org/2001/XMLSchema-instance" xsi:noNamespaceSchemaLocation="http://sumo.dlr.de/xsd/net_file.xsd">

    <location netOffset="-60.00,-60.00" convBoundary="0.00,0.00,500.00,500.00" origBoundary="60.00,60.00,560.00,560.00" projParameter="!"/>

    <edge id=":001001_0" function="internal">
        <lane id=":001001_0_0" index="0" speed="13.90" length="23.87" shape="-8.25,9.85 -7.12,1.93 -3.72,-3.72 1.93,-7.12 9.85,-8.25"/>
        <lane id=":001001_0_1" index="1" speed="13.90" length="23.87" shape="-4.95,9.85 -4.02,3.38 -1.25,-1.25 3.38,-4.03 9.85,-4.95"/>
        <lane id=":001001_0_2" index="2" speed="13.90" length="23.87" shape="-1.65,9.85 -0.93,4.82 1.23,1.22 4.82,-0.93 9.85,-1.65"/>
    </edge>
    <edge id=":001001_3" function="internal">
        <lane id=":001001_3_0" index="0" speed="13.90" length="2.69" shape="-1.65,9.85 -0.83,8.61 0.00,8.20 0.25,8.33"/>
    </edge>
    <edge id=":001001_8" function="internal">
        <lane id=":001001_8_0" index="0" speed="13.90" length="2.13" shape="0.25,8.33 0.83,8.61 1.65,9.85"/>
    </edge>
    <edge id=":001001_4" function="internal">
        <lane id=":001001_4_0" index="0" speed="13.90" length="7.90" shape="9.85,8.25 9.15,8.35 8.65,8.65 8.35,9.15 8.25,9.85"/>
        <lane id=":001001_4_1" index="1" speed="13.90" length="7.90" shape="9.85,4.95 7.71,5.26 6.18,6.18 5.26,7.71 4.95,9.85"/>
        <lane id=":001001_4_2" index="2" speed="13.90" length="7.90" shape="9.85,1.65 6.26,2.16 3.70,3.70 2.16,6.26 1.65,9.85"/>
    </edge>
    <edge id=":001001_7" function="internal">
        <lane id=":001001_7_0" index="0" speed="13.90" length="2.20" shape="9.85,1.65 8.61,0.82 8.29,0.19"/>
    </edge>
    <edge id=":001001_9" function="internal">
        <lane id=":001001_9_0" index="0" speed="13.90" length="2.62" shape="8.29,0.19 8.20,-0.00 8.61,-0.83 9.85,-1.65"/>
    </edge>
    <edge id=":001002_0" function="internal">
        <lane id=":001002_0_0" index="0" speed="13.90" length="22.70" shape="-8.25,61.35 -8.25,54.61 -8.25,50.00 -8.25,45.39 -8.25,38.65"/>
        <lane id=":001002_0_1" index="1" speed="13.90" length="22.70" shape="-4.95,61.35 -4.95,54.61 -4.95,50.00 -4.95,45.39 -4.95,38.65"/>
        <lane id=":001002_0_2" index="2" speed="13.90" length="22.70" shape="-1.65,61.35 -1.65,54.61 -1.65,50.00 -1.65,45.39 -1.65,38.65"/>
    </edge>
    <edge id=":001002_3" function="internal">
        <lane id=":001002_3_0" index="0" speed="13.90" length="8.35" shape="-1.65,61.35 -0.84,54.22 0.05,52.36"/>
        <lane id=":001002_3_1" index="1" speed="13.90" length="8.35" shape="-1.65,61.35 -0.84,55.66 0.05,54.18"/>
    </edge>
    <edge id=":001002_5" function="internal">
        <lane id=":001002_5_0" index="0" speed="13.90" length="2.41" shape="-1.65,61.35 -0.83,60.11 0.00,59.70"/>
    </edge>
    <edge id=":001002_15" function="internal">
        <lane id=":001002_15_0" index="0" speed="13.90" length="14.45" shape="0.05,52.36 1.60,49.13 5.66,46.07 11.35,45.05"/>
    </edge>
    <edge id=":001002_16" function="internal">
        <lane id=":001002_16_0" index="0" speed="13.90" length="13.50" shape="0.05,54.18 1.60,51.60 5.66,49.16 11.35,48.35"/>
    </edge>
    <edge id=":001002_17" function="internal">
        <lane id=":001002_17_0" index="0" speed="13.90" length="2.41" shape="0.00,59.70 0.83,60.11 1.65,61.35"/>
    </edge>
    <edge id=":001002_6" function="internal">
        <lane id=":001002_6_0" index="0" speed="13.90" length="5.00" shape="11.35,58.25 9.99,58.44 9.03,59.03 8.44,59.99 8.25,61.35"/>
    </edge>
    <edge id=":001002_7" function="internal">
        <lane id=":001002_7_0" index="0" speed="13.90" length="23.63" shape="11.35,54.95 4.22,53.93 -0.88,50.88 -3.93,45.78 -4.95,38.65"/>
        <lane id=":001002_7_1" index="1" speed="13.90" length="23.63" shape="11.35,51.65 5.66,50.84 1.60,48.40 -0.84,44.34 -1.65,38.65"/>
    </edge>
    <edge id=":001002_9" function="internal">
        <lane id=":001002_9_0" index="0" speed="13.90" length="4.82" shape="11.35,51.65 10.11,50.82 9.70,50.00 10.11,49.17 11.35,48.35"/>
    </edge>
    <edge id=":001002_10" function="internal">
        <lane id=":001002_10_0" index="0" speed="13.90" length="5.00" shape="8.25,38.65 8.44,40.01 9.03,40.97 9.99,41.56 11.35,41.75"/>
    </edge>
    <edge id=":001002_11" function="internal">
        <lane id=":001002_11_0" index="0" speed="13.90" length="22.70" shape="8.25,38.65 8.25,45.39 8.25,50.00 8.25,54.61 8.25,61.35"/>
        <lane id=":001002_11_1" index="1" speed="13.90" length="22.70" shape="4.95,38.65 4.95,45.39 4.95,50.00 4.95,54.61 4.95,61.35"/>
        <lane id=":001002_11_2" index="2" speed="13.90" length="22.70" shape="1.65,38.65 1.65,45.39 1.65,50.00 1.65,54.61 1.65,61.35"/>
    </edge>
    <edge id=":001002_14" function="internal">
        <lane id=":001002_14_0" index="0" speed="13.90" length="2.41" shape="1.65,38.65 0.83,39.89 0.00,40.30"/>
    </edge>
    <edge id=":001002_18" function="internal">
        <lane id=":001002_18_0" index="0" speed="13.90" length="2.41" shape="0.00,40.30 -0.83,39.89 -1.65,38.65"/>
    </edge>
    <edge id=":001003_0" function="internal">
        <lane id=":001003_0_0" index="0" speed="13.90" length="22.70" shape="-8.25,111.35 -8.25,104.61 -8.25,100.00 -8.25,95.39 -8.25,88.65"/>
        <lane id=":001003_0_1" index="1" speed="13.90" length="22.70" shape="-4.95,111.35 -4.95,104.61 -4.95,100.00 -4.95,95.39 -4.95,88.65"/>
        <lane id=":001003_0_2" index="2" speed="13.90" length="22.70" shape="-1.65,111.35 -1.65,104.61 -1.65,100.00 -1.65,95.39 -1.65,88.65"/>
    </edge>
    <edge id=":001003_3" function="internal">
        <lane id=":001003_3_0" index="0" speed="13.90" length="8.35" shape="-1.65,111.35 -0.84,104.22 0.05,102.36"/>
        <lane id=":001003_3_1" index="1" speed="13.90" length="8.35" shape="-1.65,111.35 -0.84,105.66 0.05,104.18"/>
    </edge>
    <edge id=":001003_5" function="internal">
        <lane id=":001003_5_0" index="0" speed="13.90" length="2.41" shape="-1.65,111.35 -0.83,110.11 0.00,109.70"/>
    </edge>
    <edge id=":001003_15" function="internal">
        <lane id=":001003_15_0" index="0" speed="13.90" length="14.45" shape="0.05,102.36 1.60,99.13 5.66,96.07 11.35,95.05"/>
    </edge>
    <edge id=":001003_16" function="internal">
        <lane id=":001003_16_0" index="0" speed="13.90" length="13.50" shape="0.05,104.18 1.60,101.60 5.66,99.16 11.35,98.35"/>
    </edge>
    <edge id=":001003_17" function="internal">
        <lane id=":001003_17_0" index="0" speed="13.90" length="2.41" shape="0.00,109.70 0.83,110.11 1.65,111.35"/>
    </edge>
    <edge id=":001003_6" function="internal">
        <lane id=":001003_6_0" index="0" speed="13.90" length="5.00" shape="11.35,108.25 9.99,108.44 9.02,109.03 8.44,109.99 8.25,111.35"/>
    </edge>
    <edge id=":001003_7" function="internal">
        <lane id=":001003_7_0" index="0" speed="13.90" length="23.63" shape="11.35,104.95 4.22,103.93 -0.87,100.88 -3.93,95.78 -4.95,88.65"/>
        <lane id=":001003_7_1" index="1" speed="13.90" length="23.63" shape="11.35,101.65 5.66,100.84 1.60,98.40 -0.84,94.34 -1.65,88.65"/>
    </edge>
    <edge id=":001003_9" function="internal">
        <lane id=":001003_9_0" index="0" speed="13.90" length="4.82" shape="11.35,101.65 10.11,100.82 9.70,100.00 10.11,99.17 11.35,98.35"/>
    </edge>
    <edge id=":001003_10" function="internal">
        <lane id=":001003_10_0" index="0" speed="13.90" length="5.00" shape="8.25,88.65 8.44,90.01 9.03,90.97 9.99,91.56 11.35,91.75"/>
    </edge>
    <edge id=":001003_11" function="internal">
        <lane id=":001003_11_0" index="0" speed="13.90" length="22.70" shape="8.25,88.65 8.25,95.39 8.25,100.00 8.25,104.61 8.25,111.35"/>
        <lane id=":001003_11_1" index="1" speed="13.90" length="22.70" shape="4.95,88.65 4.95,95.39 4.95,100.00 4.95,104.61 4.95,111.35"/>
        <lane id=":001003_11_2" index="2" speed="13.90" length="22.70" shape="1.65,88.65 1.65,95.39 1.65,100.00 1.65,104.61 1.65,111.35"/>
    </edge>
    <edge id=":001003_14" function="internal">
        <lane id=":001003_14_0" index="0" speed="13.90" length="2.41" shape="1.65,88.65 0.83,89.89 0.00,90.30"/>
    </edge>
    <edge id=":001003_18" function="internal">
        <lane id=":001003_18_0" index="0" speed="13.90" length="2.41" shape="0.00,90.30 -0.83,89.89 -1.65,88.65"/>
    </edge>
    <edge id=":001004_0" function="internal">
        <lane id=":001004_0_0" index="0" speed="13.90" length="22.70" shape="-8.25,161.35 -8.25,154.61 -8.25,150.00 -8.25,145.39 -8.25,138.65"/>
        <lane id=":001004_0_1" index="1" speed="13.90" length="22.70" shape="-4.95,161.35 -4.95,154.61 -4.95,150.00 -4.95,145.39 -4.95,138.65"/>
        <lane id=":001004_0_2" index="2" speed="13.90" length="22.70" shape="-1.65,161.35 -1.65,154.61 -1.65,150.00 -1.65,145.39 -1.65,138.65"/>
    </edge>
    <edge id=":001004_3" function="internal">
        <lane id=":001004_3_0" index="0" speed="13.90" length="8.35" shape="-1.65,161.35 -0.84,154.22 0.05,152.36"/>
        <lane id=":001004_3_1" index="1" speed="13.90" length="8.35" shape="-1.65,161.35 -0.84,155.66 0.05,154.18"/>
    </edge>
    <edge id=":001004_5" function="internal">
        <lane id=":001004_5_0" index="0" speed="13.90" length="2.41" shape="-1.65,161.35 -0.83,160.11 0.00,159.70"/>
    </edge>
    <edge id=":001004_15" function="internal">
        <lane id=":001004_15_0" index="0" speed="13.90" length="14.45" shape="0.05,152.36 1.60,149.13 5.66,146.07 11.35,145.05"/>
    </edge>
    <edge id=":001004_16" function="internal">
        <lane id=":001004_16_0" index="0" speed="13.90" length="13.50" shape="0.05,154.18 1.60,151.60 5.66,149.16 11.35,148.35"/>
    </edge>
    <edge id=":001004_17" function="internal">
        <lane id=":001004_17_0" index="0" speed="13.90" length="2.41" shape="0.00,159.70 0.83,160.11 1.65,161.35"/>
    </edge>
    <edge id=":001004_6" function="internal">
        <lane id=":001004_6_0" index="0" speed="13.90" length="5.00" shape="11.35,158.25 9.99,158.44 9.03,159.03 8.44,159.99 8.25,161.35"/>
    </edge>
    <edge id=":001004_7" function="internal">
        <lane id=":001004_7_0" index="0" speed="13.90" length="23.63" shape="11.35,154.95 4.22,153.93 -0.87,150.88 -3.93,145.78 -4.95,138.65"/>
        <lane id=":001004_7_1" index="1" speed="13.90" length="23.63" shape="11.35,151.65 5.66,150.84 1.60,148.40 -0.84,144.34 -1.65,138.65"/>
    </edge>
    <edge id=":001004_9" function="internal">
        <lane id=":001004_9_0" index="0" speed="13.90" length="4.82" shape="11.35,151.65 10.11,150.83 9.70,150.00 10.11,149.18 11.35,148.35"/>
    </edge>
    <edge id=":001004_10" function="internal">
        <lane id=":001004_10_0" index="0" speed="13.90" length="5.00" shape="8.25,138.65 8.44,140.01 9.03,140.97 9.99,141.56 11.35,141.75"/>
    </edge>
    <edge id=":001004_11" function="internal">
        <lane id=":001004_11_0" index="0" speed="13.90" length="22.70" shape="8.25,138.65 8.25,145.39 8.25,150.00 8.25,154.61 8.25,161.35"/>
        <lane id=":001004_11_1" index="1" speed="13.90" length="22.70" shape="4.95,138.65 4.95,145.39 4.95,150.00 4.95,154.61 4.95,161.35"/>
        <lane id=":001004_11_2" index="2" speed="13.90" length="22.70" shape="1.65,138.65 1.65,145.39 1.65,150.00 1.65,154.61 1.65,161.35"/>
    </edge>
    <edge id=":001004_14" function="internal">
        <lane id=":001004_14_0" index="0" speed="13.90" length="2.41" shape="1.65,138.65 0.83,139.89 0.00,140.30"/>
    </edge>
    <edge id=":001004_18" function="internal">
        <lane id=":001004_18_0" index="0" speed="13.90" length="2.41" shape="0.00,140.30 -0.83,139.89 -1.65,138.65"/>
    </edge>
    <edge id=":001005_0" function="internal">
        <lane id=":001005_0_0" index="0" speed="13.90" length="22.70" shape="-8.25,211.35 -8.25,204.61 -8.25,200.00 -8.25,195.39 -8.25,188.65"/>
        <lane id=":001005_0_1" index="1" speed="13.90" length="22.70" shape="-4.95,211.35 -4.95,204.61 -4.95,200.00 -4.95,195.39 -4.95,188.65"/>
        <lane id=":001005_0_2" index="2" speed="13.90" length="22.70" shape="-1.65,211.35 -1.65,204.61 -1.65,200.00 -1.65,195.39 -1.65,188.65"/>
    </edge>
    <edge id=":001005_3" function="internal">
        <lane id=":001005_3_0" index="0" speed="13.90" length="8.35" shape="-1.65,211.35 -0.84,204.22 0.05,202.36"/>
        <lane id=":001005_3_1" index="1" speed="13.90" length="8.35" shape="-1.65,211.35 -0.84,205.66 0.05,204.18"/>
    </edge>
    <edge id=":001005_5" function="internal">
        <lane id=":001005_5_0" index="0" speed="13.90" length="2.41" shape="-1.65,211.35 -0.83,210.11 0.00,209.70"/>
    </edge>
    <edge id=":001005_15" function="internal">
        <lane id=":001005_15_0" index="0" speed="13.90" length="14.45" shape="0.05,202.36 1.60,199.13 5.66,196.07 11.35,195.05"/>
    </edge>
    <edge id=":001005_16" function="internal">
        <lane id=":001005_16_0" index="0" speed="13.90" length="13.50" shape="0.05,204.18 1.60,201.60 5.66,199.16 11.35,198.35"/>
    </edge>
    <edge id=":001005_17" function="internal">
        <lane id=":001005_17_0" index="0" speed="13.90" length="2.41" shape="0.00,209.70 0.83,210.11 1.65,211.35"/>
    </edge>
    <edge id=":001005_6" function="internal">
        <lane id=":001005_6_0" index="0" speed="13.90" length="5.00" shape="11.35,208.25 9.99,208.44 9.03,209.03 8.44,209.99 8.25,211.35"/>
    </edge>
    <edge id=":001005_7" function="internal">
        <lane id=":001005_7_0" index="0" speed="13.90" length="23.63" shape="11.35,204.95 4.22,203.93 -0.87,200.87 -3.93,195.78 -4.95,188.65"/>
        <lane id=":001005_7_1" index="1" speed="13.90" length="23.63" shape="11.35,201.65 5.66,200.84 1.60,198.40 -0.84,194.34 -1.65,188.65"/>
    </edge>
    <edge id=":001005_9" function="internal">
        <lane id=":001005_9_0" index="0" speed="13.90" length="4.82" shape="11.35,201.65 10.11,200.83 9.70,200.00 10.11,199.18 11.35,198.35"/>
    </edge>
    <edge id=":001005_10" function="internal">
        <lane id=":001005_10_0" index="0" speed="13.90" length="5.00" shape="8.25,188.65 8.44,190.01 9.03,190.97 9.99,191.56 11.35,191.75"/>
    </edge>
    <edge id=":001005_11" function="internal">
        <lane id=":001005_11_0" index="0" speed="13.90" length="22.70" shape="8.25,188.65 8.25,195.39 8.25,200.00 8.25,204.61 8.25,211.35"/>
        <lane id=":001005_11_1" index="1" speed="13.90" length="22.70" shape="4.95,188.65 4.95,195.39 4.95,200.00 4.95,204.61 4.95,211.35"/>
        <lane id=":001005_11_2" index="2" speed="13.90" length="22.70" shape="1.65,188.65 1.65,195.39 1.65,200.00 1.65,204.61 1.65,211.35"/>
    </edge>
    <edge id=":001005_14" function="internal">
        <lane id=":001005_14_0" index="0" speed="13.90" length="2.41" shape="1.65,188.65 0.83,189.89 0.00,190.30"/>
    </edge>
    <edge id=":001005_18" function="internal">
        <lane id=":001005_18_0" index="0" speed="13.90" length="2.41" shape="0.00,190.30 -0.83,189.89 -1.65,188.65"/>
    </edge>
    <edge id=":001006_0" function="internal">
        <lane id=":001006_0_0" index="0" speed="13.90" length="22.70" shape="-8.25,261.35 -8.25,254.61 -8.25,250.00 -8.25,245.39 -8.25,238.65"/>
        <lane id=":001006_0_1" index="1" speed="13.90" length="22.70" shape="-4.95,261.35 -4.95,254.61 -4.95,250.00 -4.95,245.39 -4.95,238.65"/>
        <lane id=":001006_0_2" index="2" speed="13.90" length="22.70" shape="-1.65,261.35 -1.65,254.61 -1.65,250.00 -1.65,245.39 -1.65,238.65"/>
    </edge>
    <edge id=":001006_3" function="internal">
        <lane id=":001006_3_0" index="0" speed="13.90" length="8.35" shape="-1.65,261.35 -0.84,254.22 0.05,252.36"/>
        <lane id=":001006_3_1" index="1" speed="13.90" length="8.35" shape="-1.65,261.35 -0.84,255.66 0.05,254.18"/>
    </edge>
    <edge id=":001006_5" function="internal">
        <lane id=":001006_5_0" index="0" speed="13.90" length="2.41" shape="-1.65,261.35 -0.83,260.11 0.00,259.70"/>
    </edge>
    <edge id=":001006_15" function="internal">
        <lane id=":001006_15_0" index="0" speed="13.90" length="14.45" shape="0.05,252.36 1.60,249.13 5.66,246.07 11.35,245.05"/>
    </edge>
    <edge id=":001006_16" function="internal">
        <lane id=":001006_16_0" index="0" speed="13.90" length="13.50" shape="0.05,254.18 1.60,251.60 5.66,249.16 11.35,248.35"/>
    </edge>
    <edge id=":001006_17" function="internal">
        <lane id=":001006_17_0" index="0" speed="13.90" length="2.41" shape="0.00,259.70 0.83,260.11 1.65,261.35"/>
    </edge>
    <edge id=":001006_6" function="internal">
        <lane id=":001006_6_0" index="0" speed="13.90" length="5.00" shape="11.35,258.25 9.99,258.44 9.03,259.02 8.44,259.99 8.25,261.35"/>
    </edge>
    <edge id=":001006_7" function="internal">
        <lane id=":001006_7_0" index="0" speed="13.90" length="23.63" shape="11.35,254.95 4.22,253.93 -0.87,250.87 -3.93,245.78 -4.95,238.65"/>
        <lane id=":001006_7_1" index="1" speed="13.90" length="23.63" shape="11.35,251.65 5.66,250.84 1.60,248.40 -0.84,244.34 -1.65,238.65"/>
    </edge>
    <edge id=":001006_9" function="internal">
        <lane id=":001006_9_0" index="0" speed="13.90" length="4.82" shape="11.35,251.65 10.11,250.82 9.70,250.00 10.11,249.18 11.35,248.35"/>
    </edge>
    <edge id=":001006_10" function="internal">
        <lane id=":001006_10_0" index="0" speed="13.90" length="5.00" shape="8.25,238.65 8.44,240.01 9.03,240.97 9.99,241.56 11.35,241.75"/>
    </edge>
    <edge id=":001006_11" function="internal">
        <lane id=":001006_11_0" index="0" speed="13.90" length="22.70" shape="8.25,238.65 8.25,245.39 8.25,250.00 8.25,254.61 8.25,261.35"/>
        <lane id=":001006_11_1" index="1" speed="13.90" length="22.70" shape="4.95,238.65 4.95,245.39 4.95,250.00 4.95,254.61 4.95,261.35"/>
        <lane id=":001006_11_2" index="2" speed="13.90" length="22.70" shape="1.65,238.65 1.65,245.39 1.65,250.00 1.65,254.61 1.65,261.35"/>
    </edge>
    <edge id=":001006_14" function="internal">
        <lane id=":001006_14_0" index="0" speed="13.90" length="2.41" shape="1.65,238.65 0.83,239.89 0.00,240.30"/>
    </edge>
    <edge id=":001006_18" function="internal">
        <lane id=":001006_18_0" index="0" speed="13.90" length="2.41" shape="0.00,240.30 -0.83,239.89 -1.65,238.65"/>
    </edge>
    <edge id=":001007_0" function="internal">
        <lane id=":001007_0_0" index="0" speed="13.90" length="22.70" shape="-8.25,311.35 -8.25,304.61 -8.25,300.00 -8.25,295.39 -8.25,288.65"/>
        <lane id=":001007_0_1" index="1" speed="13.90" length="22.70" shape="-4.95,311.35 -4.95,304.61 -4.95,300.00 -4.95,295.39 -4.95,288.65"/>
        <lane id=":001007_0_2" index="2" speed="13.90" length="22.70" shape="-1.65,311.35 -1.65,304.61 -1.65,300.00 -1.65,295.39 -1.65,288.65"/>
    </edge>
    <edge id=":001007_3" function="internal">
        <lane id=":001007_3_0" index="0" speed="13.90" length="8.35" shape="-1.65,311.35 -0.84,304.22 0.05,302.36"/>
        <lane id=":001007_3_1" index="1" speed="13.90" length="8.35" shape="-1.65,311.35 -0.84,305.66 0.05,304.18"/>
    </edge>
    <edge id=":001007_5" function="internal">
        <lane id=":001007_5_0" index="0" speed="13.90" length="2.41" shape="-1.65,311.35 -0.83,310.11 0.00,309.70"/>
    </edge>
    <edge id=":001007_15" function="internal">
        <lane id=":001007_15_0" index="0" speed="13.90" length="14.45" shape="0.05,302.36 1.60,299.13 5.66,296.07 11.35,295.05"/>
    </edge>
    <edge id=":001007_16" function="internal">
        <lane id=":001007_16_0" index="0" speed="13.90" length="13.50" shape="0.05,304.18 1.60,301.60 5.66,299.16 11.35,298.35"/>
    </edge>
    <edge id=":001007_17" function="internal">
        <lane id=":001007_17_0" index="0" speed="13.90" length="2.41" shape="0.00,309.70 0.83,310.11 1.65,311.35"/>
    </edge>
    <edge id=":001007_6" function="internal">
        <lane id=":001007_6_0" index="0" speed="13.90" length="5.00" shape="11.35,308.25 9.99,308.44 9.03,309.02 8.44,309.99 8.25,311.35"/>
    </edge>
    <edge id=":001007_7" function="internal">
        <lane id=":001007_7_0" index="0" speed="13.90" length="23.63" shape="11.35,304.95 4.22,303.93 -0.87,300.88 -3.93,295.78 -4.95,288.65"/>
        <lane id=":001007_7_1" index="1" speed="13.90" length="23.63" shape="11.35,301.65 5.66,300.84 1.60,298.40 -0.84,294.34 -1.65,288.65"/>
    </edge>
    <edge id=":001007_9" function="internal">
        <lane id=":001007_9_0" index="0" speed="13.90" length="4.82" shape="11.35,301.65 10.11,300.83 9.70,300.00 10.11,299.18 11.35,298.35"/>
    </edge>
    <edge id=":001007_10" function="internal">
        <lane id=":001007_10_0" index="0" speed="13.90" length="5.00" shape="8.25,288.65 8.44,290.01 9.03,290.98 9.99,291.56 11.35,291.75"/>
    </edge>
    <edge id=":001007_11" function="internal">
        <lane id=":001007_11_0" index="0" speed="13.90" length="22.70" shape="8.25,288.65 8.25,295.39 8.25,300.00 8.25,304.61 8.25,311.35"/>
        <lane id=":001007_11_1" index="1" speed="13.90" length="22.70" shape="4.95,288.65 4.95,295.39 4.95,300.00 4.95,304.61 4.95,311.35"/>
        <lane id=":001007_11_2" index="2" speed="13.90" length="22.70" shape="1.65,288.65 1.65,295.39 1.65,300.00 1.65,304.61 1.65,311.35"/>
    </edge>
    <edge id=":001007_14" function="internal">
        <lane id=":001007_14_0" index="0" speed="13.90" length="2.41" shape="1.65,288.65 0.83,289.89 0.00,290.30"/>
    </edge>
    <edge id=":001007_18" function="internal">
        <lane id=":001007_18_0" index="0" speed="13.90" length="2.41" shape="0.00,290.30 -0.83,289.89 -1.65,288.65"/>
    </edge>
    <edge id=":001008_0" function="internal">
        <lane id=":001008_0_0" index="0" speed="13.90" length="22.70" shape="-8.25,361.35 -8.25,354.61 -8.25,350.00 -8.25,345.39 -8.25,338.65"/>
        <lane id=":001008_0_1" index="1" speed="13.90" length="22.70" shape="-4.95,361.35 -4.95,354.61 -4.95,350.00 -4.95,345.39 -4.95,338.65"/>
        <lane id=":001008_0_2" index="2" speed="13.90" length="22.70" shape="-1.65,361.35 -1.65,354.61 -1.65,350.00 -1.65,345.39 -1.65,338.65"/>
    </edge>
    <edge id=":001008_3" function="internal">
        <lane id=":001008_3_0" index="0" speed="13.90" length="8.35" shape="-1.65,361.35 -0.84,354.22 0.05,352.36"/>
        <lane id=":001008_3_1" index="1" speed="13.90" length="8.35" shape="-1.65,361.35 -0.84,355.66 0.05,354.18"/>
    </edge>
    <edge id=":001008_5" function="internal">
        <lane id=":001008_5_0" index="0" speed="13.90" length="2.41" shape="-1.65,361.35 -0.83,360.11 0.00,359.70"/>
    </edge>
    <edge id=":001008_15" function="internal">
        <lane id=":001008_15_0" index="0" speed="13.90" length="14.45" shape="0.05,352.36 1.60,349.13 5.66,346.07 11.35,345.05"/>
    </edge>
    <edge id=":001008_16" function="internal">
        <lane id=":001008_16_0" index="0" speed="13.90" length="13.50" shape="0.05,354.18 1.60,351.60 5.66,349.16 11.35,348.35"/>
    </edge>
    <edge id=":001008_17" function="internal">
        <lane id=":001008_17_0" index="0" speed="13.90" length="2.41" shape="0.00,359.70 0.83,360.11 1.65,361.35"/>
    </edge>
    <edge id=":001008_6" function="internal">
        <lane id=":001008_6_0" index="0" speed="13.90" length="5.00" shape="11.35,358.25 9.99,358.44 9.03,359.02 8.44,359.99 8.25,361.35"/>
    </edge>
    <edge id=":001008_7" function="internal">
        <lane id=":001008_7_0" index="0" speed="13.90" length="23.63" shape="11.35,354.95 4.22,353.93 -0.87,350.88 -3.93,345.78 -4.95,338.65"/>
        <lane id=":001008_7_1" index="1" speed="13.90" length="23.63" shape="11.35,351.65 5.66,350.84 1.60,348.40 -0.84,344.34 -1.65,338.65"/>
    </edge>
    <edge id=":001008_9" function="internal">
        <lane id=":001008_9_0" index="0" speed="13.90" length="4.82" shape="11.35,351.65 10.11,350.83 9.70,350.00 10.11,349.18 11.35,348.35"/>
    </edge>
    <edge id=":001008_10" function="internal">
        <lane id=":001008_10_0" index="0" speed="13.90" length="5.00" shape="8.25,338.65 8.44,340.01 9.03,340.98 9.99,341.56 11.35,341.75"/>
    </edge>
    <edge id=":001008_11" function="internal">
        <lane id=":001008_11_0" index="0" speed="13.90" length="22.70" shape="8.25,338.65 8.25,345.39 8.25,350.00 8.25,354.61 8.25,361.35"/>
        <lane id=":001008_11_1" index="1" speed="13.90" length="22.70" shape="4.95,338.65 4.95,345.39 4.95,350.00 4.95,354.61 4.95,361.35"/>
        <lane id=":001008_11_2" index="2" speed="13.90" length="22.70" shape="1.65,338.65 1.65,345.39 1.65,350.00 1.65,354.61 1.65,361.35"/>
    </edge>
    <edge id=":001008_14" function="internal">
        <lane id=":001008_14_0" index="0" speed="13.90" length="2.41" shape="1.65,338.65 0.83,339.89 0.00,340.30"/>
    </edge>
    <edge id=":001008_18" function="internal">
        <lane id=":001008_18_0" index="0" speed="13.90" length="2.41" shape="0.00,340.30 -0.83,339.89 -1.65,338.65"/>
    </edge>
    <edge id=":001009_0" function="internal">
        <lane id=":001009_0_0" index="0" speed="13.90" length="22.70" shape="-8.25,411.35 -8.25,404.61 -8.25,400.00 -8.25,395.39 -8.25,388.65"/>
        <lane id=":001009_0_1" index="1" speed="13.90" length="22.70" shape="-4.95,411.35 -4.95,404.61 -4.95,400.00 -4.95,395.39 -4.95,388.65"/>
        <lane id=":001009_0_2" index="2" speed="13.90" length="22.70" shape="-1.65,411.35 -1.65,404.61 -1.65,400.00 -1.65,395.39 -1.65,388.65"/>
    </edge>
    <edge id=":001009_3" function="internal">
        <lane id=":001009_3_0" index="0" speed="13.90" length="8.35" shape="-1.65,411.35 -0.84,404.22 0.05,402.36"/>
        <lane id=":001009_3_1" index="1" speed="13.90" length="8.35" shape="-1.65,411.35 -0.84,405.66 0.05,404.18"/>
    </edge>
    <edge id=":001009_5" function="internal">
        <lane id=":001009_5_0" index="0" speed="13.90" length="2.41" shape="-1.65,411.35 -0.83,410.11 0.00,409.70"/>
    </edge>
    <edge id=":001009_15" function="internal">
        <lane id=":001009_15_0" index="0" speed="13.90" length="14.45" shape="0.05,402.36 1.60,399.13 5.66,396.07 11.35,395.05"/>
    </edge>
    <edge id=":001009_16" function="internal">
        <lane id=":001009_16_0" index="0" speed="13.90" length="13.50" shape="0.05,404.18 1.60,401.60 5.66,399.16 11.35,398.35"/>
    </edge>
    <edge id=":001009_17" function="internal">
        <lane id=":001009_17_0" index="0" speed="13.90" length="2.41" shape="0.00,409.70 0.83,410.11 1.65,411.35"/>
    </edge>
    <edge id=":001009_6" function="internal">
        <lane id=":001009_6_0" index="0" speed="13.90" length="5.00" shape="11.35,408.25 9.99,408.44 9.03,409.02 8.44,409.99 8.25,411.35"/>
    </edge>
    <edge id=":001009_7" function="internal">
        <lane id=":001009_7_0" index="0" speed="13.90" length="23.63" shape="11.35,404.95 4.22,403.93 -0.87,400.88 -3.93,395.78 -4.95,388.65"/>
        <lane id=":001009_7_1" index="1" speed="13.90" length="23.63" shape="11.35,401.65 5.66,400.84 1.60,398.40 -0.84,394.34 -1.65,388.65"/>
    </edge>
    <edge id=":001009_9" function="internal">
        <lane id=":001009_9_0" index="0" speed="13.90" length="4.82" shape="11.35,401.65 10.11,400.83 9.70,400.00 10.11,399.18 11.35,398.35"/>
    </edge>
    <edge id=":001009_10" function="internal">
        <lane id=":001009_10_0" index="0" speed="13.90" length="5.00" shape="8.25,388.65 8.44,390.01 9.03,390.98 9.99,391.56 11.35,391.75"/>
    </edge>
    <edge id=":001009_11" function="internal">
        <lane id=":001009_11_0" index="0" speed="13.90" length="22.70" shape="8.25,388.65 8.25,395.39 8.25,400.00 8.25,404.61 8.25,411.35"/>
        <lane id=":001009_11_1" index="1" speed="13.90" length="22.70" shape="4.95,388.65 4.95,395.39 4.95,400.00 4.95,404.61 4.95,411.35"/>
        <lane id=":001009_11_2" index="2" speed="13.90" length="22.70" shape="1.65,388.65 1.65,395.39 1.65,400.00 1.65,404.61 1.65,411.35"/>
    </edge>
    <edge id=":001009_14" function="internal">
        <lane id=":001009_14_0" index="0" speed="13.90" length="2.41" shape="1.65,388.65 0.83,389.89 0.00,390.30"/>
    </edge>
    <edge id=":001009_18" function="internal">
        <lane id=":001009_18_0" index="0" speed="13.90" length="2.41" shape="0.00,390.30 -0.83,389.89 -1.65,388.65"/>
    </edge>
    <edge id=":001010_0" function="internal">
        <lane id=":001010_0_0" index="0" speed="13.90" length="22.70" shape="-8.25,461.35 -8.25,454.61 -8.25,450.00 -8.25,445.39 -8.25,438.65"/>
        <lane id=":001010_0_1" index="1" speed="13.90" length="22.70" shape="-4.95,461.35 -4.95,454.61 -4.95,450.00 -4.95,445.39 -4.95,438.65"/>
        <lane id=":001010_0_2" index="2" speed="13.90" length="22.70" shape="-1.65,461.35 -1.65,454.61 -1.65,450.00 -1.65,445.39 -1.65,438.65"/>
    </edge>
    <edge id=":001010_3" function="internal">
        <lane id=":001010_3_0" index="0" speed="13.90" length="8.35" shape="-1.65,461.35 -0.84,454.22 0.05,452.36"/>
        <lane id=":001010_3_1" index="1" speed="13.90" length="8.35" shape="-1.65,461.35 -0.84,455.66 0.05,454.18"/>
    </edge>
    <edge id=":001010_5" function="internal">
        <lane id=":001010_5_0" index="0" speed="13.90" length="2.41" shape="-1.65,461.35 -0.83,460.11 0.00,459.70"/>
    </edge>
    <edge id=":001010_15" function="internal">
        <lane id=":001010_15_0" index="0" speed="13.90" length="14.45" shape="0.05,452.36 1.60,449.13 5.66,446.07 11.35,445.05"/>
    </edge>
    <edge id=":001010_16" function="internal">
        <lane id=":001010_16_0" index="0" speed="13.90" length="13.50" shape="0.05,454.18 1.60,451.60 5.66,449.16 11.35,448.35"/>
    </edge>