<?xml version="1.0" encoding="UTF-8"?>
<nodes>
	<node id="001001" x="60.0" y="60.0" />
	<node id="001002" x="60.0" y="110.0" />
	<node id="001003" x="60.0" y="160.0" />
	<node id="001004" x="60.0" y="210.0" />
	<node id="001005" x="60.0" y="260.0" />
	<node id="001006" x="60.0" y="310.0" />
	<node id="001007" x="60.0" y="360.0" />
	<node id="001008" x="60.0" y="410.0" />
	<node id="001009" x="60.0" y="460.0" />
	<node id="001010" x="60.0" y="510.0" />
	<node id="001011" x="60.0" y="560.0" />
	<node id="002001" x="110.0" y="60.0" />
	<node id="002002" x="110.0" y="110.0" />
	<node id="002003" x="110.0" y="160.0" />
	<node id="002004" x="110.0" y="210.0" />
	<node id="002005" x="110.0" y="260.0" />
	<node id="002006" x="110.0" y="310.0" />
	<node id="002007" x="110.0" y="360.0" />
	<node id="002008" x="110.0" y="410.0" />
	<node id="002009" x="110.0" y="460.0" />
	<node id="002010" x="110.0" y="510.0" />
	<node id="002011" x="110.0" y="560.0" />
	<node id="003001" x="160.0" y="60.0" />
	<node id="003002" x="160.0" y="110.0" />
	<node id="003003" x="160.0" y="160.0" />
	<node id="003004" x="160.0" y="210.0" />
	<node id="003005" x="160.0" y="260.0" />
	<node id="003006" x="160.0" y="310.0" />
	<node id="003007" x="160.0" y="360.0" />
	<node id="003008" x="160.0" y="410.0" />
	<node id="003009" x="160.0" y="460.0" />
	<node id="003010" x="160.0" y="510.0" />
	<node id="003011" x="160.0" y="560.0" />
	<node id="004001" x="210.0" y="60.0" />
	<node id="004002" x="210.0" y="110.0" />
	<node id="004003" x="210.0" y="160.0" />
	<node id="004004" x="210.0" y="210.0" />
	<node id="004005" x="210.0" y="260.0" />
	<node id="004006" x="210.0" y="310.0" />
	<node id="004007" x="210.0" y="360.0" />
	<node id="004008" x="210.0" y="410.0" />
	<node id="004009" x="210.0" y="460.0" />
	<node id="004010" x="210.0" y="510.0" />
	<node id="004011" x="210.0" y="560.0" />
	<node id="005001" x="260.0" y="60.0" />
	<node id="005002" x="260.0" y="110.0" />
	<node id="005003" x="260.0" y="160.0" />
	<node id="005004" x="260.0" y="210.0" />
	<node id="005005" x="260.0" y="260.0" />
	<node id="005006" x="260.0" y="310.0" />
	<node id="005007" x="260.0" y="360.0" />
	<node id="005008" x="260.0" y="410.0" />
	<node id="005009" x="260.0" y="460.0" />
	<node id="005010" x="260.0" y="510.0" />
	<node id="005011" x="260.0" y="560.0" />
	<node id="006001" x="310.0" y="60.0" />
	<node id="006002" x="310.0" y="110.0" />
	<node id="006003" x="310.0" y="160.0" />
	<node id="006004" x="310.0" y="210.0" />
	<node id="006005" x="310.0" y="260.0" />
	<node id="006006" x="310.0" y="310.0" />
	<node id="006007" x="310.0" y="360.0" />
	<node id="006008" x="310.0" y="410.0" />
	<node id="006009" x="310.0" y="460.0" />
	<node id="006010" x="310.0" y="510.0" />
	<node id="006011" x="310.0" y="560.0" />
	<node id="007001" x="360.0" y="60.0" />
	<node id="007002" x="360.0" y="110.0" />
	<node id="007003" x="360.0" y="160.0" />
	<node id="007004" x="360.0" y="210.0" />
	<node id="007005" x="360.0" y="260.0" />
	<node id="007006" x="360.0" y="310.0" />
	<node id="007007" x="360.0" y="360.0" />
	<node id="007008" x="360.0" y="410.0" />
	<node id="007009" x="360.0" y="460.0" />
	<node id="007010" x="360.0" y="510.0" />
	<node id="007011" x="360.0" y="560.0" />
	<node id="008001" x="410.0" y="60.0" />
	<node id="008002" x="410.0" y="110.0" />
	<node id="008003" x="410.0" y="160.0" />
	<node id="008004" x="410.0" y="210.0" />
	<node id="008005" x="410.0" y="260.0" />
	<node id="008006" x="410.0" y="310.0" />
	<node id="008007" x="410.0" y="360.0" />
	<node id="008008" x="410.0" y="410.0" />
	<node id="008009" x="410.0" y="460.0" />
	<node id="008010" x="410.0" y="510.0" />
	<node id="008011" x="410.0" y="560.0" />
	<node id="009001" x="460.0" y="60.0" />
	<node id="009002" x="460.0" y="110.0" />
	<node id="009003" x="460.0" y="160.0" />
	<node id="009004" x="460.0" y="210.0" />
	<node id="009005" x="460.0" y="260.0" />
	<node id="009006" x="460.0" y="310.0" />
	<node id="009007" x="460.0" y="360.0" />
	<node id="009008" x="460.0" y="410.0" />
	<node id="009009" x="460.0" y="460.0" />
	<node id="009010" x="460.0" y="510.0" />
	<node id="009011" x="460.0" y="560.0" />
	<node id="010001" x="510.0" y="60.0" />
	<node id="010002" x="510.0" y="110.0" />
	<node id="010003" x="510.0" y="160.0" />
	<node id="010004" x="510.0" y="210.0" />
	<node id="010005" x="510.0" y="260.0" />
	<node id="010006" x="510.0" y="310.0" />
	<node id="010007" x="510.0" y="360.0" />
	<node id="010008" x="510.0" y="410.0" />
	<node id="010009" x="510.0" y="460.0" />
	<node id="010010" x="510.0" y="510.0" />
	<node id="010011" x="510.0" y="560.0" />
	<node id="011001" x="560.0" y="60.0" />
	<node id="011002" x="560.0" y="110.0" />
	<node id="011003" x="560.0" y="160.0" />
	<node id="011004" x="560.0" y="210.0" />
	<node id="011005" x="560.0" y="260.0" />
	<node id="011006" x="560.0" y="310.0" />
	<node id="011007" x="560.0" y="360.0" />
	<node id="011008" x="560.0" y="410.0" />
	<node id="011009" x="560.0" y="460.0" />
	<node id="011010" x="560.0" y="510.0" />
	<node id="011011" x="560.0" y="560.0" />
</nodes>