<?xml version="1.0" encoding="UTF-8"?>

<!-- generated on 07/18/16 23:10:25 by SUMO netconvert Version 0.27.0
<?xml version="1.0" encoding="UTF-8"?>

<configuration xmlns:xsi="http://www.w3.org/2001/XMLSchema-instance" xsi:noNamespaceSchemaLocation="http://sumo.dlr.de/xsd/netconvertConfiguration.xsd">

    <input>
        <node-files value="basicnode.nod.xml"/>
        <edge-files value="basicnode.edg.xml"/>
    </input>

    <output>
        <output-file value="basicnode.net.xml"/>
    </output>

</configuration>
-->

<net version="0.27" xmlns:xsi="http://www.w3.org/2001/XMLSchema-instance" xsi:noNamespaceSchemaLocation="http://sumo.dlr.de/xsd/net_file.xsd">

    <location netOffset="-10.00,-10.00" convBoundary="0.00,0.00,500.00,500.00" origBoundary="10.00,10.00,510.00,510.00" projParameter="!"/>

    <edge id=":1_0" function="internal">
        <lane id=":1_0_0" index="0" speed="13.90" length="23.87" shape="-8.25,9.85 -7.12,1.93 -3.72,-3.72 1.93,-7.12 9.85,-8.25"/>
        <lane id=":1_0_1" index="1" speed="13.90" length="23.87" shape="-4.95,9.85 -4.02,3.38 -1.25,-1.25 3.38,-4.03 9.85,-4.95"/>
        <lane id=":1_0_2" index="2" speed="13.90" length="23.87" shape="-1.65,9.85 -0.93,4.82 1.23,1.22 4.82,-0.93 9.85,-1.65"/>
    </edge>
    <edge id=":1_3" function="internal">
        <lane id=":1_3_0" index="0" speed="13.90" length="2.69" shape="-1.65,9.85 -0.83,8.61 0.00,8.20 0.25,8.33"/>
    </edge>
    <edge id=":1_8" function="internal">
        <lane id=":1_8_0" index="0" speed="13.90" length="2.13" shape="0.25,8.33 0.83,8.61 1.65,9.85"/>
    </edge>
    <edge id=":1_4" function="internal">
        <lane id=":1_4_0" index="0" speed="13.90" length="7.90" shape="9.85,8.25 9.15,8.35 8.65,8.65 8.35,9.15 8.25,9.85"/>
        <lane id=":1_4_1" index="1" speed="13.90" length="7.90" shape="9.85,4.95 7.71,5.26 6.18,6.18 5.26,7.71 4.95,9.85"/>
        <lane id=":1_4_2" index="2" speed="13.90" length="7.90" shape="9.85,1.65 6.26,2.16 3.70,3.70 2.16,6.26 1.65,9.85"/>
    </edge>
    <edge id=":1_7" function="internal">
        <lane id=":1_7_0" index="0" speed="13.90" length="2.20" shape="9.85,1.65 8.61,0.82 8.29,0.19"/>
    </edge>
    <edge id=":1_9" function="internal">
        <lane id=":1_9_0" index="0" speed="13.90" length="2.62" shape="8.29,0.19 8.20,-0.00 8.61,-0.83 9.85,-1.65"/>
    </edge>
    <edge id=":10_0" function="internal">
        <lane id=":10_0_0" index="0" speed="13.90" length="22.70" shape="-8.25,461.35 -8.25,454.61 -8.25,450.00 -8.25,445.39 -8.25,438.65"/>
        <lane id=":10_0_1" index="1" speed="13.90" length="22.70" shape="-4.95,461.35 -4.95,454.61 -4.95,450.00 -4.95,445.39 -4.95,438.65"/>
        <lane id=":10_0_2" index="2" speed="13.90" length="22.70" shape="-1.65,461.35 -1.65,454.61 -1.65,450.00 -1.65,445.39 -1.65,438.65"/>
    </edge>
    <edge id=":10_3" function="internal">
        <lane id=":10_3_0" index="0" speed="13.90" length="8.35" shape="-1.65,461.35 -0.84,454.22 0.05,452.36"/>
        <lane id=":10_3_1" index="1" speed="13.90" length="8.35" shape="-1.65,461.35 -0.84,455.66 0.05,454.18"/>
    </edge>
    <edge id=":10_5" function="internal">
        <lane id=":10_5_0" index="0" speed="13.90" length="2.41" shape="-1.65,461.35 -0.83,460.11 0.00,459.70"/>
    </edge>
    <edge id=":10_15" function="internal">
        <lane id=":10_15_0" index="0" speed="13.90" length="14.45" shape="0.05,452.36 1.60,449.13 5.66,446.07 11.35,445.05"/>
    </edge>
    <edge id=":10_16" function="internal">
        <lane id=":10_16_0" index="0" speed="13.90" length="13.50" shape="0.05,454.18 1.60,451.60 5.66,449.16 11.35,448.35"/>
    </edge>
    <edge id=":10_17" function="internal">
        <lane id=":10_17_0" index="0" speed="13.90" length="2.41" shape="0.00,459.70 0.83,460.11 1.65,461.35"/>
    </edge>
    <edge id=":10_6" function="internal">
        <lane id=":10_6_0" index="0" speed="13.90" length="5.00" shape="11.35,458.25 9.99,458.44 9.02,459.02 8.44,459.99 8.25,461.35"/>
    </edge>
    <edge id=":10_7" function="internal">
        <lane id=":10_7_0" index="0" speed="13.90" length="23.63" shape="11.35,454.95 4.22,453.93 -0.87,450.88 -3.93,445.78 -4.95,438.65"/>
        <lane id=":10_7_1" index="1" speed="13.90" length="23.63" shape="11.35,451.65 5.66,450.84 1.60,448.40 -0.84,444.34 -1.65,438.65"/>
    </edge>
    <edge id=":10_9" function="internal">
        <lane id=":10_9_0" index="0" speed="13.90" length="4.82" shape="11.35,451.65 10.11,450.83 9.70,450.00 10.11,449.18 11.35,448.35"/>
    </edge>
    <edge id=":10_10" function="internal">
        <lane id=":10_10_0" index="0" speed="13.90" length="5.00" shape="8.25,438.65 8.44,440.01 9.03,440.98 9.99,441.56 11.35,441.75"/>
    </edge>
    <edge id=":10_11" function="internal">
        <lane id=":10_11_0" index="0" speed="13.90" length="22.70" shape="8.25,438.65 8.25,445.39 8.25,450.00 8.25,454.61 8.25,461.35"/>
        <lane id=":10_11_1" index="1" speed="13.90" length="22.70" shape="4.95,438.65 4.95,445.39 4.95,450.00 4.95,454.61 4.95,461.35"/>
        <lane id=":10_11_2" index="2" speed="13.90" length="22.70" shape="1.65,438.65 1.65,445.39 1.65,450.00 1.65,454.61 1.65,461.35"/>
    </edge>
    <edge id=":10_14" function="internal">
        <lane id=":10_14_0" index="0" speed="13.90" length="2.41" shape="1.65,438.65 0.83,439.89 0.00,440.30"/>
    </edge>
    <edge id=":10_18" function="internal">
        <lane id=":10_18_0" index="0" speed="13.90" length="2.41" shape="0.00,440.30 -0.83,439.89 -1.65,438.65"/>
    </edge>
    <edge id=":100_0" function="internal">
        <lane id=":100_0_0" index="0" speed="13.90" length="5.00" shape="441.75,11.35 441.56,9.99 440.98,9.03 440.01,8.44 438.65,8.25"/>
    </edge>
    <edge id=":100_1" function="internal">
        <lane id=":100_1_0" index="0" speed="13.90" length="23.63" shape="445.05,11.35 446.07,4.22 449.13,-0.88 454.22,-3.93 461.35,-4.95"/>
        <lane id=":100_1_1" index="1" speed="13.90" length="23.63" shape="448.35,11.35 449.16,5.66 451.60,1.60 455.66,-0.84 461.35,-1.65"/>
    </edge>
    <edge id=":100_3" function="internal">
        <lane id=":100_3_0" index="0" speed="13.90" length="4.82" shape="448.35,11.35 449.17,10.11 450.00,9.70 450.82,10.11 451.65,11.35"/>
    </edge>
    <edge id=":100_4" function="internal">
        <lane id=":100_4_0" index="0" speed="13.90" length="5.00" shape="461.35,8.25 459.99,8.44 459.02,9.03 458.44,9.99 458.25,11.35"/>
    </edge>
    <edge id=":100_5" function="internal">
        <lane id=":100_5_0" index="0" speed="13.90" length="22.70" shape="461.35,8.25 454.61,8.25 450.00,8.25 445.39,8.25 438.65,8.25"/>
        <lane id=":100_5_1" index="1" speed="13.90" length="22.70" shape="461.35,4.95 454.61,4.95 450.00,4.95 445.39,4.95 438.65,4.95"/>
        <lane id=":100_5_2" index="2" speed="13.90" length="22.70" shape="461.35,1.65 454.61,1.65 450.00,1.65 445.39,1.65 438.65,1.65"/>
    </edge>
    <edge id=":100_8" function="internal">
        <lane id=":100_8_0" index="0" speed="13.90" length="2.41" shape="461.35,1.65 460.11,0.83 459.70,0.00"/>
    </edge>
    <edge id=":100_15" function="internal">
        <lane id=":100_15_0" index="0" speed="13.90" length="2.41" shape="459.70,0.00 460.11,-0.83 461.35,-1.65"/>
    </edge>
    <edge id=":100_9" function="internal">
        <lane id=":100_9_0" index="0" speed="13.90" length="22.70" shape="438.65,-8.25 445.39,-8.25 450.00,-8.25 454.61,-8.25 461.35,-8.25"/>
        <lane id=":100_9_1" index="1" speed="13.90" length="22.70" shape="438.65,-4.95 445.39,-4.95 450.00,-4.95 454.61,-4.95 461.35,-4.95"/>
        <lane id=":100_9_2" index="2" speed="13.90" length="22.70" shape="438.65,-1.65 445.39,-1.65 450.00,-1.65 454.61,-1.65 461.35,-1.65"/>
    </edge>
    <edge id=":100_12" function="internal">
        <lane id=":100_12_0" index="0" speed="13.90" length="8.35" shape="438.65,-1.65 445.78,-0.84 447.64,0.05"/>
        <lane id=":100_12_1" index="1" speed="13.90" length="8.35" shape="438.65,-1.65 444.34,-0.84 445.82,0.05"/>
    </edge>
    <edge id=":100_14" function="internal">
        <lane id=":100_14_0" index="0" speed="13.90" length="2.41" shape="438.65,-1.65 439.89,-0.83 440.30,0.00"/>
    </edge>
    <edge id=":100_16" function="internal">
        <lane id=":100_16_0" index="0" speed="13.90" length="14.45" shape="447.64,0.05 450.88,1.60 453.93,5.66 454.95,11.35"/>
    </edge>
    <edge id=":100_17" function="internal">
        <lane id=":100_17_0" index="0" speed="13.90" length="13.50" shape="445.82,0.05 448.40,1.60 450.84,5.66 451.65,11.35"/>
    </edge>
    <edge id=":100_18" function="internal">
        <lane id=":100_18_0" index="0" speed="13.90" length="2.41" shape="440.30,0.00 439.89,0.83 438.65,1.65"/>
    </edge>
    <edge id=":101_0" function="internal">
        <lane id=":101_0_0" index="0" speed="13.90" length="5.00" shape="441.75,61.35 441.56,59.99 440.98,59.03 440.01,58.44 438.65,58.25"/>
    </edge>
    <edge id=":101_1" function="internal">
        <lane id=":101_1_0" index="0" speed="13.90" length="22.70" shape="441.75,61.35 441.75,54.61 441.75,50.00 441.75,45.39 441.75,38.65"/>
        <lane id=":101_1_1" index="1" speed="13.90" length="22.70" shape="445.05,61.35 445.05,54.61 445.05,50.00 445.05,45.39 445.05,38.65"/>
        <lane id=":101_1_2" index="2" speed="13.90" length="22.70" shape="448.35,61.35 448.35,54.61 448.35,50.00 448.35,45.39 448.35,38.65"/>
    </edge>
    <edge id=":101_4" function="internal">
        <lane id=":101_4_0" index="0" speed="13.90" length="7.47" shape="448.35,61.35 449.16,55.66 450.05,54.18"/>
    </edge>
    <edge id=":101_5" function="internal">
        <lane id=":101_5_0" index="0" speed="13.90" length="2.41" shape="448.35,61.35 449.17,60.11 450.00,59.70"/>
    </edge>
    <edge id=":101_24" function="internal">
        <lane id=":101_24_0" index="0" speed="13.90" length="13.50" shape="450.05,54.18 451.60,51.60 455.66,49.16 461.35,48.35"/>
    </edge>
    <edge id=":101_25" function="internal">
        <lane id=":101_25_0" index="0" speed="13.90" length="2.41" shape="450.00,59.70 450.82,60.11 451.65,61.35"/>
    </edge>
    <edge id=":101_6" function="internal">
        <lane id=":101_6_0" index="0" speed="13.90" length="5.00" shape="461.35,58.25 459.99,58.44 459.02,59.03 458.44,59.99 458.25,61.35"/>
    </edge>
    <edge id=":101_7" function="internal">
        <lane id=":101_7_0" index="0" speed="13.90" length="22.70" shape="461.35,58.25 454.61,58.25 450.00,58.25 445.39,58.25 438.65,58.25"/>
        <lane id=":101_7_1" index="1" speed="13.90" length="22.70" shape="461.35,54.95 454.61,54.95 450.00,54.95 445.39,54.95 438.65,54.95"/>
        <lane id=":101_7_2" index="2" speed="13.90" length="22.70" shape="461.35,51.65 454.61,51.65 450.00,51.65 445.39,51.65 438.65,51.65"/>
    </edge>
    <edge id=":101_10" function="internal">
        <lane id=":101_10_0" index="0" speed="13.90" length="20.97" shape="461.35,51.65 455.66,50.84 451.60,48.40 449.16,44.34 448.35,38.65"/>
    </edge>
    <edge id=":101_11" function="internal">
        <lane id=":101_11_0" index="0" speed="13.90" length="4.82" shape="461.35,51.65 460.11,50.82 459.70,50.00 460.11,49.17 461.35,48.35"/>
    </edge>
    <edge id=":101_12" function="internal">
        <lane id=":101_12_0" index="0" speed="13.90" length="5.00" shape="458.25,38.65 458.44,40.01 459.02,40.97 459.99,41.56 461.35,41.75"/>
    </edge>
    <edge id=":101_13" function="internal">
        <lane id=":101_13_0" index="0" speed="13.90" length="22.70" shape="458.25,38.65 458.25,45.39 458.25,50.00 458.25,54.61 458.25,61.35"/>
        <lane id=":101_13_1" index="1" speed="13.90" length="22.70" shape="454.95,38.65 454.95,45.39 454.95,50.00 454.95,54.61 454.95,61.35"/>
        <lane id=":101_13_2" index="2" speed="13.90" length="22.70" shape="451.65,38.65 451.65,45.39 451.65,50.00 451.65,54.61 451.65,61.35"/>
    </edge>
    <edge id=":101_16" function="internal">
        <lane id=":101_16_0" index="0" speed="13.90" length="7.47" shape="451.65,38.65 450.84,44.34 449.95,45.82"/>
    </edge>
    <edge id=":101_17" function="internal">
        <lane id=":101_17_0" index="0" speed="13.90" length="2.41" shape="451.65,38.65 450.83,39.89 450.00,40.30"/>
    </edge>
    <edge id=":101_26" function="internal">
        <lane id=":101_26_0" index="0" speed="13.90" length="13.50" shape="449.95,45.82 448.40,48.40 444.34,50.84 438.65,51.65"/>
    </edge>
    <edge id=":101_27" function="internal">
        <lane id=":101_27_0" index="0" speed="13.90" length="2.41" shape="450.00,40.30 449.18,39.89 448.35,38.65"/>
    </edge>
    <edge id=":101_18" function="internal">
        <lane id=":101_18_0" index="0" speed="13.90" length="5.00" shape="438.65,41.75 440.01,41.56 440.98,40.97 441.56,40.01 441.75,38.65"/>
    </edge>
    <edge id=":101_19" function="internal">
        <lane id=":101_19_0" index="0" speed="13.90" length="22.70" shape="438.65,41.75 445.39,41.75 450.00,41.75 454.61,41.75 461.35,41.75"/>
        <lane id=":101_19_1" index="1" speed="13.90" length="22.70" shape="438.65,45.05 445.39,45.05 450.00,45.05 454.61,45.05 461.35,45.05"/>
        <lane id=":101_19_2" index="2" speed="13.90" length="22.70" shape="438.65,48.35 445.39,48.35 450.00,48.35 454.61,48.35 461.35,48.35"/>
    </edge>
    <edge id=":101_22" function="internal">
        <lane id=":101_22_0" index="0" speed="13.90" length="20.97" shape="438.65,48.35 444.34,49.16 448.40,51.60 450.84,55.66 451.65,61.35"/>
    </edge>
    <edge id=":101_23" function="internal">
        <lane id=":101_23_0" index="0" speed="13.90" length="4.82" shape="438.65,48.35 439.89,49.18 440.30,50.00 439.89,50.83 438.65,51.65"/>
    </edge>
    <edge id=":102_0" function="internal">
        <lane id=":102_0_0" index="0" speed="13.90" length="5.00" shape="441.75,111.35 441.56,109.99 440.98,109.03 440.01,108.44 438.65,108.25"/>
    </edge>
    <edge id=":102_1" function="internal">
        <lane id=":102_1_0" index="0" speed="13.90" length="22.70" shape="441.75,111.35 441.75,104.61 441.75,100.00 441.75,95.39 441.75,88.65"/>
        <lane id=":102_1_1" index="1" speed="13.90" length="22.70" shape="445.05,111.35 445.05,104.61 445.05,100.00 445.05,95.39 445.05,88.65"/>
        <lane id=":102_1_2" index="2" speed="13.90" length="22.70" shape="448.35,111.35 448.35,104.61 448.35,100.00 448.35,95.39 448.35,88.65"/>
    </edge>
    <edge id=":102_4" function="internal">
        <lane id=":102_4_0" index="0" speed="13.90" length="7.47" shape="448.35,111.35 449.16,105.66 450.05,104.18"/>
    </edge>
    <edge id=":102_5" function="internal">
        <lane id=":102_5_0" index="0" speed="13.90" length="2.41" shape="448.35,111.35 449.17,110.11 450.00,109.70"/>
    </edge>
    <edge id=":102_24" function="internal">
        <lane id=":102_24_0" index="0" speed="13.90" length="13.50" shape="450.05,104.18 451.60,101.60 455.66,99.16 461.35,98.35"/>
    </edge>
    <edge id=":102_25" function="internal">
        <lane id=":102_25_0" index="0" speed="13.90" length="2.41" shape="450.00,109.70 450.82,110.11 451.65,111.35"/>
    </edge>
    <edge id=":102_6" function="internal">
        <lane id=":102_6_0" index="0" speed="13.90" length="5.00" shape="461.35,108.25 459.99,108.44 459.02,109.03 458.44,109.99 458.25,111.35"/>
    </edge>
    <edge id=":102_7" function="internal">
        <lane id=":102_7_0" index="0" speed="13.90" length="22.70" shape="461.35,108.25 454.61,108.25 450.00,108.25 445.39,108.25 438.65,108.25"/>
        <lane id=":102_7_1" index="1" speed="13.90" length="22.70" shape="461.35,104.95 454.61,104.95 450.00,104.95 445.39,104.95 438.65,104.95"/>
        <lane id=":102_7_2" index="2" speed="13.90" length="22.70" shape="461.35,101.65 454.61,101.65 450.00,101.65 445.39,101.65 438.65,101.65"/>
    </edge>
    <edge id=":102_10" function="internal">
        <lane id=":102_10_0" index="0" speed="13.90" length="20.97" shape="461.35,101.65 455.66,100.84 451.60,98.40 449.16,94.34 448.35,88.65"/>
    </edge>
    <edge id=":102_11" function="internal">
        <lane id=":102_11_0" index="0" speed="13.90" length="4.82" shape="461.35,101.65 460.11,100.82 459.70,100.00 460.11,99.17 461.35,98.35"/>
    </edge>
    <edge id=":102_12" function="internal">
        <lane id=":102_12_0" index="0" speed="13.90" length="5.00" shape="458.25,88.65 458.44,90.01 459.02,90.97 459.99,91.56 461.35,91.75"/>
    </edge>
    <edge id=":102_13" function="internal">
        <lane id=":102_13_0" index="0" speed="13.90" length="22.70" shape="458.25,88.65 458.25,95.39 458.25,100.00 458.25,104.61 458.25,111.35"/>
        <lane id=":102_13_1" index="1" speed="13.90" length="22.70" shape="454.95,88.65 454.95,95.39 454.95,100.00 454.95,104.61 454.95,111.35"/>
        <lane id=":102_13_2" index="2" speed="13.90" length="22.70" shape="451.65,88.65 451.65,95.39 451.65,100.00 451.65,104.61 451.65,111.35"/>
    </edge>
    <edge id=":102_16" function="internal">
        <lane id=":102_16_0" index="0" speed="13.90" length="7.47" shape="451.65,88.65 450.84,94.34 449.95,95.82"/>
    </edge>
    <edge id=":102_17" function="internal">
        <lane id=":102_17_0" index="0" speed="13.90" length="2.41" shape="451.65,88.65 450.83,89.89 450.00,90.30"/>
    </edge>
    <edge id=":102_26" function="internal">
        <lane id=":102_26_0" index="0" speed="13.90" length="13.50" shape="449.95,95.82 448.40,98.40 444.34,100.84 438.65,101.65"/>
    </edge>
    <edge id=":102_27" function="internal">
        <lane id=":102_27_0" index="0" speed="13.90" length="2.41" shape="450.00,90.30 449.18,89.89 448.35,88.65"/>
    </edge>
    <edge id=":102_18" function="internal">
        <lane id=":102_18_0" index="0" speed="13.90" length="5.00" shape="438.65,91.75 440.01,91.56 440.98,90.97 441.56,90.01 441.75,88.65"/>
    </edge>
    <edge id=":102_19" function="internal">
        <lane id=":102_19_0" index="0" speed="13.90" length="22.70" shape="438.65,91.75 445.39,91.75 450.00,91.75 454.61,91.75 461.35,91.75"/>
        <lane id=":102_19_1" index="1" speed="13.90" length="22.70" shape="438.65,95.05 445.39,95.05 450.00,95.05 454.61,95.05 461.35,95.05"/>
        <lane id=":102_19_2" index="2" speed="13.90" length="22.70" shape="438.65,98.35 445.39,98.35 450.00,98.35 454.61,98.35 461.35,98.35"/>
    </edge>
    <edge id=":102_22" function="internal">
        <lane id=":102_22_0" index="0" speed="13.90" length="20.97" shape="438.65,98.35 444.34,99.16 448.40,101.60 450.84,105.66 451.65,111.35"/>
    </edge>
    <edge id=":102_23" function="internal">
        <lane id=":102_23_0" index="0" speed="13.90" length="4.82" shape="438.65,98.35 439.89,99.18 440.30,100.00 439.89,100.83 438.65,101.65"/>
    </edge>
    <edge id=":103_0" function="internal">
        <lane id=":103_0_0" index="0" speed="13.90" length="5.00" shape="441.75,161.35 441.56,159.99 440.98,159.03 440.01,158.44 438.65,158.25"/>
    </edge>
    <edge id=":103_1" function="internal">
        <lane id=":103_1_0" index="0" speed="13.90" length="22.70" shape="441.75,161.35 441.75,154.61 441.75,150.00 441.75,145.39 441.75,138.65"/>
        <lane id=":103_1_1" index="1" speed="13.90" length="22.70" shape="445.05,161.35 445.05,154.61 445.05,150.00 445.05,145.39 445.05,138.65"/>
        <lane id=":103_1_2" index="2" speed="13.90" length="22.70" shape="448.35,161.35 448.35,154.61 448.35,150.00 448.35,145.39 448.35,138.65"/>
    </edge>
    <edge id=":103_4" function="internal">
        <lane id=":103_4_0" index="0" speed="13.90" length="7.47" shape="448.35,161.35 449.16,155.66 450.05,154.18"/>
    </edge>
    <edge id=":103_5" function="internal">
        <lane id=":103_5_0" index="0" speed="13.90" length="2.41" shape="448.35,161.35 449.17,160.11 450.00,159.70"/>
    </edge>
    <edge id=":103_24" function="internal">
        <lane id=":103_24_0" index="0" speed="13.90" length="13.50" shape="450.05,154.18 451.60,151.60 455.66,149.16 461.35,148.35"/>
    </edge>
    <edge id=":103_25" function="internal">
        <lane id=":103_25_0" index="0" speed="13.90" length="2.41" shape="450.00,159.70 450.82,160.11 451.65,161.35"/>
    </edge>
    <edge id=":103_6" function="internal">
        <lane id=":103_6_0" index="0" speed="13.90" length="5.00" shape="461.35,158.25 459.99,158.44 459.02,159.03 458.44,159.99 458.25,161.35"/>
    </edge>
    <edge id=":103_7" function="internal">
        <lane id=":103_7_0" index="0" speed="13.90" length="22.70" shape="461.35,158.25 454.61,158.25 450.00,158.25 445.39,158.25 438.65,158.25"/>
        <lane id=":103_7_1" index="1" speed="13.90" length="22.70" shape="461.35,154.95 454.61,154.95 450.00,154.95 445.39,154.95 438.65,154.95"/>
        <lane id=":103_7_2" index="2" speed="13.90" length="22.70" shape="461.35,151.65 454.61,151.65 450.00,151.65 445.39,151.65 438.65,151.65"/>
    </edge>
    <edge id=":103_10" function="internal">
        <lane id=":103_10_0" index="0" speed="13.90" length="20.97" shape="461.35,151.65 455.66,150.84 451.60,148.40 449.16,144.34 448.35,138.65"/>
    </edge>
    <edge id=":103_11" function="internal">
        <lane id=":103_11_0" index="0" speed="13.90" length="4.82" shape="461.35,151.65 460.11,150.83 459.70,150.00 460.11,149.18 461.35,148.35"/>
    </edge>
    <edge id=":103_12" function="internal">
        <lane id=":103_12_0" index="0" speed="13.90" length="5.00" shape="458.25,138.65 458.44,140.01 459.02,140.97 459.99,141.56 461.35,141.75"/>
    </edge>
    <edge id=":103_13" function="internal">
        <lane id=":103_13_0" index="0" speed="13.90" length="22.70" shape="458.25,138.65 458.25,145.39 458.25,150.00 458.25,154.61 458.25,161.35"/>
        <lane id=":103_13_1" index="1" speed="13.90" length="22.70" shape="454.95,138.65 454.95,145.39 454.95,150.00 454.95,154.61 454.95,161.35"/>
        <lane id=":103_13_2" index="2" speed="13.90" length="22.70" shape="451.65,138.65 451.65,145.39 451.65,150.00 451.65,154.61 451.65,161.35"/>
    </edge>
    <edge id=":103_16" function="internal">
        <lane id=":103_16_0" index="0" speed="13.90" length="7.47" shape="451.65,138.65 450.84,144.34 449.95,145.82"/>
    </edge>
    <edge id=":103_17" function="internal">
        <lane id=":103_17_0" index="0" speed="13.90" length="2.41" shape="451.65,138.65 450.83,139.89 450.00,140.30"/>
    </edge>
    <edge id=":103_26" function="internal">
        <lane id=":103_26_0" index="0" speed="13.90" length="13.50" shape="449.95,145.82 448.40,148.40 444.34,150.84 438.65,151.65"/>
    </edge>
    <edge id=":103_27" function="internal">
        <lane id=":103_27_0" index="0" speed="13.90" length="2.41" shape="450.00,140.30 449.18,139.89 448.35,138.65"/>
    </edge>
    <edge id=":103_18" function="internal">
        <lane id=":103_18_0" index="0" speed="13.90" length="5.00" shape="438.65,141.75 440.01,141.56 440.98,140.97 441.56,140.01 441.75,138.65"/>
    </edge>
    <edge id=":103_19" function="internal">
        <lane id=":103_19_0" index="0" speed="13.90" length="22.70" shape="438.65,141.75 445.39,141.75 450.00,141.75 454.61,141.75 461.35,141.75"/>
        <lane id=":103_19_1" index="1" speed="13.90" length="22.70" shape="438.65,145.05 445.39,145.05 450.00,145.05 454.61,145.05 461.35,145.05"/>
        <lane id=":103_19_2" index="2" speed="13.90" length="22.70" shape="438.65,148.35 445.39,148.35 450.00,148.35 454.61,148.35 461.35,148.35"/>
    </edge>
    <edge id=":103_22" function="internal">
        <lane id=":103_22_0" index="0" speed="13.90" length="20.97" shape="438.65,148.35 444.34,149.16 448.40,151.60 450.84,155.66 451.65,161.35"/>
    </edge>
    <edge id=":103_23" function="internal">
        <lane id=":103_23_0" index="0" speed="13.90" length="4.82" shape="438.65,148.35 439.89,149.17 440.30,150.00 439.89,150.82 438.65,151.65"/>
    </edge>
    <edge id=":104_0" function="internal">
        <lane id=":104_0_0" index="0" speed="13.90" length="5.00" shape="441.75,211.35 441.56,209.99 440.98,209.03 440.01,208.44 438.65,208.25"/>
    </edge>
    <edge id=":104_1" function="internal">
        <lane id=":104_1_0" index="0" speed="13.90" length="22.70" shape="441.75,211.35 441.75,204.61 441.75,200.00 441.75,195.39 441.75,188.65"/>
        <lane id=":104_1_1" index="1" speed="13.90" length="22.70" shape="445.05,211.35 445.05,204.61 445.05,200.00 445.05,195.39 445.05,188.65"/>
        <lane id=":104_1_2" index="2" speed="13.90" length="22.70" shape="448.35,211.35 448.35,204.61 448.35,200.00 448.35,195.39 448.35,188.65"/>
    </edge>
    <edge id=":104_4" function="internal">
        <lane id=":104_4_0" index="0" speed="13.90" length="7.47" shape="448.35,211.35 449.16,205.66 450.05,204.18"/>
    </edge>
    <edge id=":104_5" function="internal">
        <lane id=":104_5_0" index="0" speed="13.90" length="2.41" shape="448.35,211.35 449.17,210.11 450.00,209.70"/>
    </edge>
    <edge id=":104_24" function="internal">
        <lane id=":104_24_0" index="0" speed="13.90" length="13.50" shape="450.05,204.18 451.60,201.60 455.66,199.16 461.35,198.35"/>
    </edge>
    <edge id=":104_25" function="internal">
        <lane id=":104_25_0" index="0" speed="13.90" length="2.41" shape="450.00,209.70 450.82,210.11 451.65,211.35"/>
    </edge>
    <edge id=":104_6" function="internal">
        <lane id=":104_6_0" index="0" speed="13.90" length="5.00" shape="461.35,208.25 459.99,208.44 459.02,209.03 458.44,209.99 458.25,211.35"/>
    </edge>
    <edge id=":104_7" function="internal">
        <lane id=":104_7_0" index="0" speed="13.90" length="22.70" shape="461.35,208.25 454.61,208.25 450.00,208.25 445.39,208.25 438.65,208.25"/>
        <lane id=":104_7_1" index="1" speed="13.90" length="22.70" shape="461.35,204.95 454.61,204.95 450.00,204.95 445.39,204.95 438.65,204.95"/>
        <lane id=":104_7_2" index="2" speed="13.90" length="22.70" shape="461.35,201.65 454.61,201.65 450.00,201.65 445.39,201.65 438.65,201.65"/>
    </edge>
    <edge id=":104_10" function="internal">
        <lane id=":104_10_0" index="0" speed="13.90" length="20.97" shape="461.35,201.65 455.66,200.84 451.60,198.40 449.16,194.34 448.35,188.65"/>
    </edge>
    <edge id=":104_11" function="internal">
        <lane id=":104_11_0" index="0" speed="13.90" length="4.82" shape="461.35,201.65 460.11,200.83 459.70,200.00 460.11,199.18 461.35,198.35"/>
    </edge>
    <edge id=":104_12" function="internal">
        <lane id=":104_12_0" index="0" speed="13.90" length="5.00" shape="458.25,188.65 458.44,190.01 459.02,190.97 459.99,191.56 461.35,191.75"/>
    </edge>
    <edge id=":104_13" function="internal">
        <lane id=":104_13_0" index="0" speed="13.90" length="22.70" shape="458.25,188.65 458.25,195.39 458.25,200.00 458.25,204.61 458.25,211.35"/>
        <lane id=":104_13_1" index="1" speed="13.90" length="22.70" shape="454.95,188.65 454.95,195.39 454.95,200.00 454.95,204.61 454.95,211.35"/>
        <lane id=":104_13_2" index="2" speed="13.90" length="22.70" shape="451.65,188.65 451.65,195.39 451.65,200.00 451.65,204.61 451.65,211.35"/>
    </edge>
    <edge id=":104_16" function="internal">
        <lane id=":104_16_0" index="0" speed="13.90" length="7.47" shape="451.65,188.65 450.84,194.34 449.95,195.82"/>
    </edge>
    <edge id=":104_17" function="internal">
        <lane id=":104_17_0" index="0" speed="13.90" length="2.41" shape="451.65,188.65 450.83,189.89 450.00,190.30"/>
    </edge>
    <edge id=":104_26" function="internal">
        <lane id=":104_26_0" index="0" speed="13.90" length="13.50" shape="449.95,195.82 448.40,198.40 444.34,200.84 438.65,201.65"/>
    </edge>
    <edge id=":104_27" function="internal">
        <lane id=":104_27_0" index="0" speed="13.90" length="2.41" shape="450.00,190.30 449.18,189.89 448.35,188.65"/>
    </edge>
    <edge id=":104_18" function="internal">
        <lane id=":104_18_0" index="0" speed="13.90" length="5.00" shape="438.65,191.75 440.01,191.56 440.98,190.97 441.56,190.01 441.75,188.65"/>
    </edge>
    <edge id=":104_19" function="internal">
        <lane id=":104_19_0" index="0" speed="13.90" length="22.70" shape="438.65,191.75 445.39,191.75 450.00,191.75 454.61,191.75 461.35,191.75"/>
        <lane id=":104_19_1" index="1" speed="13.90" length="22.70" shape="438.65,195.05 445.39,195.05 450.00,195.05 454.61,195.05 461.35,195.05"/>
        <lane id=":104_19_2" index="2" speed="13.90" length="22.70" shape="438.65,198.35 445.39,198.35 450.00,198.35 454.61,198.35 461.35,198.35"/>
    </edge>
    <edge id=":104_22" function="internal">
        <lane id=":104_22_0" index="0" speed="13.90" length="20.97" shape="438.65,198.35 444.34,199.16 448.40,201.60 450.84,205.66 451.65,211.35"/>
    </edge>
    <edge id=":104_23" function="internal">
        <lane id=":104_23_0" index="0" speed="13.90" length="4.82" shape="438.65,198.35 439.89,199.17 440.30,200.00 439.89,200.82 438.65,201.65"/>
    </edge>
    <edge id=":105_0" function="internal">
        <lane id=":105_0_0" index="0" speed="13.90" length="5.00" shape="441.75,261.35 441.56,259.99 440.98,259.02 440.01,258.44 438.65,258.25"/>
    </edge>
    <edge id=":105_1" function="internal">
        <lane id=":105_1_0" index="0" speed="13.90" length="22.70" shape="441.75,261.35 441.75,254.61 441.75,250.00 441.75,245.39 441.75,238.65"/>
        <lane id=":105_1_1" index="1" speed="13.90" length="22.70" shape="445.05,261.35 445.05,254.61 445.05,250.00 445.05,245.39 445.05,238.65"/>
        <lane id=":105_1_2" index="2" speed="13.90" length="22.70" shape="448.35,261.35 448.35,254.61 448.35,250.00 448.35,245.39 448.35,238.65"/>
    </edge>
    <edge id=":105_4" function="internal">
        <lane id=":105_4_0" index="0" speed="13.90" length="7.47" shape="448.35,261.35 449.16,255.66 450.05,254.18"/>
    </edge>
    <edge id=":105_5" function="internal">
        <lane id=":105_5_0" index="0" speed="13.90" length="2.41" shape="448.35,261.35 449.17,260.11 450.00,259.70"/>
    </edge>
    <edge id=":105_24" function="internal">
        <lane id=":105_24_0" index="0" speed="13.90" length="13.50" shape="450.05,254.18 451.60,251.60 455.66,249.16 461.35,248.35"/>
    </edge>
    <edge id=":105_25" function="internal">