<routes>
    <vType accel="1.0" decel="5.0" id="Car" length="2.0" maxSpeed="100.0" sigma="0.0" guiShape="bicycle"/>
    <route id="route0" edges="001001to001002 001002to001003 001003to001004"/>
    <vehicle depart="1" id="veh0" route="route0" type="Car" color="1,0,0" personNumber="2" personCapacity="1"/>
    <vehicle depart="1" id="veh1" route="route0" type="Car" color="0,1,0" />
    <vehicle depart="1" id="veh2" route="route0" type="Car" color="0,0,1" />
	<trip id="trip0" depart="0.00" from="001001to001002" to="001002to001003" />
</routes>