<?xml version="1.0" encoding="UTF-8"?>

<!-- generated on 07/13/16 00:05:12 by SUMO polyconvert Version 0.27.0
<?xml version="1.0" encoding="UTF-8"?>

<configuration xmlns:xsi="http://www.w3.org/2001/XMLSchema-instance" xsi:noNamespaceSchemaLocation="http://sumo.dlr.de/xsd/polyconvertConfiguration.xsd">

    <input>
        <net-file value="C:\Program%20Files%20(x86)\DLR\Sumo\tools\2016-07-13-00-04-45\osm.net.xml"/>
        <osm-files value="osm_bbox.osm.xml"/>
        <osm.keep-full-type value="true"/>
        <type-file value="C:\Program%20Files%20(x86)\DLR\Sumo\data\typemap\osmPolyconvert.typ.xml"/>
    </input>

    <output>
        <output-file value="C:\Program%20Files%20(x86)\DLR\Sumo\tools\2016-07-13-00-04-45\osm.poly.xml"/>
    </output>

    <processing>
        <poi-layer-offset value="5"/>
    </processing>

    <report>
        <verbose value="true"/>
    </report>

</configuration>
-->

<additional xmlns:xsi="http://www.w3.org/2001/XMLSchema-instance" xsi:noNamespaceSchemaLocation="http://sumo.dlr.de/xsd/additional_file.xsd">
    <location netOffset="-390441.18,-5819588.10" convBoundary="-7008.15,-4207.25,5413.58,3671.09" origBoundary="13.282814,52.477280,13.465648,52.548335" projParameter="+proj=utm +zone=33 +ellps=WGS84 +datum=WGS84 +units=m +no_defs"/>

    <poly id="104786906" type="building.yes" color="255,230,230" fill="1" layer="-1.00" shape="581.63,483.72 644.95,495.31 637.95,505.40 634.26,510.19 629.79,515.99 627.88,518.47 613.78,517.54 602.40,516.80 603.00,509.63 624.51,511.30 625.84,504.28 585.98,497.55 584.47,498.63 582.62,507.97 583.65,509.14 583.45,510.15 582.60,510.55 582.38,515.25 578.89,515.03 575.59,514.80 575.99,512.70 579.32,496.32 581.01,487.40 581.63,483.72"/>
    <poly id="104786907" type="building.residential" color="255,230,230" fill="1" layer="-1.00" shape="610.75,465.39 609.60,478.36 569.08,471.18 571.48,438.13 586.00,439.36 587.04,425.91 600.86,427.42 600.10,437.22 590.63,436.83 590.37,439.89 592.62,440.12 591.57,452.13 598.64,452.86 598.21,458.16 597.87,464.35 610.75,465.39"/>
    <poly id="104786910" type="building.yes" color="255,230,230" fill="1" layer="-1.00" shape="688.12,492.16 700.79,475.59 684.69,463.01 685.40,462.09 684.62,461.49 687.69,457.49 688.40,458.03 689.35,456.81 693.30,459.85 694.06,458.86 710.84,471.76 718.10,462.45 728.16,465.54 707.99,491.66 700.50,501.38 688.12,492.16"/>
    <poly id="104786915" type="building.yes" color="255,230,230" fill="1" layer="-1.00" shape="686.25,485.29 672.72,482.87 671.61,489.12 685.11,491.62 686.25,485.29"/>
    <poly id="104786916" type="building.yes" color="255,230,230" fill="1" layer="-1.00" shape="714.28,417.50 709.14,434.90 747.35,445.35 749.51,439.68 752.15,431.79 747.49,428.15 744.68,426.28 738.54,424.16 726.03,420.90 714.28,417.50"/>
    <poly id="104991245" type="building.yes" color="255,230,230" fill="1" layer="-1.00" shape="606.24,796.36 592.67,800.92 596.25,811.54 610.07,852.49 623.64,847.94 606.24,796.36"/>
    <poly id="104991246" type="building.yes" color="255,230,230" fill="1" layer="-1.00" shape="496.22,844.69 494.94,841.04 510.16,835.66 511.45,839.22 496.22,844.69"/>
    <poly id="105187865" type="building.yes" color="255,230,230" fill="1" layer="-1.00" shape="106.16,364.66 204.58,372.17 197.51,439.48 195.55,460.99 193.57,482.60 55.83,471.18 45.69,470.34 9.77,467.36 16.82,390.75 52.18,393.49 51.44,401.76 26.33,399.73 24.23,425.01 49.25,427.04 48.72,433.47 48.29,438.62 26.36,436.90 24.27,462.06 46.15,463.86 47.09,452.56 57.59,453.47 56.63,464.56 72.10,465.78 73.22,451.85 84.33,452.77 84.76,447.51 106.77,449.33 105.97,458.98 169.85,464.26 174.08,413.40 184.95,414.29 186.07,400.91 136.42,396.81 137.34,385.73 122.61,384.52 120.54,409.44 102.57,407.96 105.38,374.09 106.16,364.66"/>
    <poly id="105187865#1" type="landuse.commercial" color="209,209,204" fill="1" layer="-3.00" shape="106.16,364.66 204.58,372.17 197.51,439.48 195.55,460.99 193.57,482.60 55.83,471.18 45.69,470.34 9.77,467.36 16.82,390.75 52.18,393.49 51.44,401.76 26.33,399.73 24.23,425.01 49.25,427.04 48.72,433.47 48.29,438.62 26.36,436.90 24.27,462.06 46.15,463.86 47.09,452.56 57.59,453.47 56.63,464.56 72.10,465.78 73.22,451.85 84.33,452.77 84.76,447.51 106.77,449.33 105.97,458.98 169.85,464.26 174.08,413.40 184.95,414.29 186.07,400.91 136.42,396.81 137.34,385.73 122.61,384.52 120.54,409.44 102.57,407.96 105.38,374.09 106.16,364.66"/>
    <poly id="105733615" type="building.yes" color="255,230,230" fill="1" layer="-1.00" shape="217.80,867.67 219.24,849.53 232.16,850.31 230.45,869.40 217.80,867.67"/>
    <poly id="105733622" type="building.yes" color="255,230,230" fill="1" layer="-1.00" shape="223.08,881.79 238.58,883.14 239.55,870.26 232.87,869.72 232.62,871.94 230.28,871.52 230.45,869.40 217.80,867.67 216.93,879.49 215.47,880.46 217.57,883.18 222.91,883.49 223.08,881.79"/>
    <poly id="105733634" type="building.yes" color="255,230,230" fill="1" layer="-1.00" shape="252.88,814.35 247.50,813.82 245.79,837.96 233.25,836.84 223.16,836.04 201.21,834.50 199.58,832.22 202.34,799.15 204.31,797.46 244.22,800.69 254.20,801.62 254.09,802.44 252.88,814.35"/>
    <poly id="105733641" type="building.yes" color="255,230,230" fill="1" layer="-1.00" shape="274.25,803.81 269.22,803.50 254.09,802.44 252.88,814.35 252.78,814.92 274.54,816.80 275.48,805.92 274.25,803.81"/>
    <poly id="105733647" type="building.yes" color="255,230,230" fill="1" layer="-1.00" shape="256.52,884.58 238.58,883.14 239.55,870.26 257.79,871.84 256.52,884.58"/>
    <poly id="105733655" type="building.yes" color="255,230,230" fill="1" layer="-1.00" shape="219.24,849.53 220.06,838.77 222.83,839.07 223.16,836.04 233.25,836.84 232.16,850.31 219.24,849.53"/>
    <poly id="105733781" type="building.apartments" color="255,230,230" fill="1" layer="-1.00" shape="406.23,917.59 406.66,923.67 400.58,923.55 400.82,917.67 389.03,917.22 389.50,903.57 405.13,904.10 406.23,917.59"/>
    <poly id="105733782" type="building.apartments" color="255,230,230" fill="1" layer="-1.00" shape="389.03,917.22 388.71,923.26 386.70,923.25 386.99,930.68 387.02,932.12 381.04,931.96 381.22,922.06 382.12,921.99 382.63,919.99 381.19,917.81 370.74,917.43 369.85,919.23 370.01,921.71 369.72,921.73 369.74,931.82 363.98,931.78 364.60,919.63 365.49,902.89 389.50,903.57 389.03,917.22"/>
    <poly id="105733783" type="building.apartments" color="255,230,230" fill="1" layer="-1.00" shape="316.01,945.13 327.35,946.49 329.28,937.67 332.68,938.31 332.96,936.40 329.70,935.73 330.56,931.81 319.73,930.46 316.01,945.13"/>
    <poly id="105733783#1" type="tourism.hostel" color="207,245,201" fill="1" layer="-2.00" shape="316.01,945.13 327.35,946.49 329.28,937.67 332.68,938.31 332.96,936.40 329.70,935.73 330.56,931.81 319.73,930.46 316.01,945.13"/>
    <poly id="105733784" type="building.yes" color="255,230,230" fill="1" layer="-1.00" shape="537.12,966.19 581.53,950.47 566.85,911.68 523.98,920.32 537.12,966.19"/>
    <poly id="105733786" type="building.apartments" color="255,230,230" fill="1" layer="-1.00" shape="433.38,956.26 431.99,919.84 430.49,920.02 430.41,918.53 420.47,918.25 420.59,920.44 417.15,920.47 418.53,951.63 419.99,951.56 420.23,956.67 433.38,956.26"/>
    <poly id="105733787" type="building.apartments" color="255,230,230" fill="1" layer="-1.00" shape="430.41,918.53 431.18,904.88 405.13,904.10 406.23,917.59 420.47,918.25 430.41,918.53"/>
    <poly id="105733789" type="amenity.theatre" color="237,199,199" fill="1" layer="-1.00" shape="341.35,948.05 327.35,946.49 316.01,945.13 305.71,993.20 335.31,991.68 335.96,986.32 341.35,948.05"/>
    <poly id="105733789#1" type="building.apartments" color="255,230,230" fill="1" layer="-1.00" shape="341.35,948.05 327.35,946.49 316.01,945.13 305.71,993.20 335.31,991.68 335.96,986.32 341.35,948.05"/>
    <poly id="105733790" type="building.apartments" color="255,230,230" fill="1" layer="-1.00" shape="471.92,925.89 476.67,939.40 461.14,941.87 453.37,942.90 452.23,937.82 462.68,935.05 460.66,929.11 471.92,925.89"/>
    <poly id="105733792" type="building.apartments" color="255,230,230" fill="1" layer="-1.00" shape="458.07,919.42 430.41,918.53 431.18,904.88 464.94,905.87 471.92,925.89 460.66,929.11 458.07,919.42"/>
    <poly id="105733795" type="building.apartments" color="255,230,230" fill="1" layer="-1.00" shape="476.67,939.40 481.50,953.10 468.90,953.43 462.20,953.62 461.14,941.87 476.67,939.40"/>
    <poly id="105733796" type="building.yes" color="255,230,230" fill="1" layer="-1.00" shape="387.84,956.99 387.02,932.12 386.99,930.68 394.20,930.76 394.64,956.68 387.84,956.99"/>
    <poly id="105733797" type="building.apartments" color="255,230,230" fill="1" layer="-1.00" shape="319.73,930.46 325.09,903.12 327.98,901.24 365.49,902.89 364.60,919.63 344.17,918.95 343.89,924.60 342.16,926.44 341.47,931.18 341.87,931.64 341.59,933.61 332.61,932.87 332.81,932.12 330.56,931.81 319.73,930.46"/>
    <poly id="106845276" type="building.yes" color="255,230,230" fill="1" layer="-1.00" shape="362.43,985.66 335.96,986.32 341.35,948.05 363.52,946.55 362.43,985.66"/>
    <poly id="109089263" type="building.residential" color="255,230,230" fill="1" layer="-1.00" shape="956.35,908.43 958.07,926.03 959.81,925.84 960.96,939.13 960.29,939.24 958.97,946.41 964.60,947.50 972.69,910.77 972.18,910.19 973.00,907.61 970.67,907.94 970.14,907.07 956.35,908.43"/>
    <poly id="109089264" type="building.residential" color="255,230,230" fill="1" layer="-1.00" shape="938.44,940.78 944.08,940.70 944.07,940.22 949.46,940.18 949.47,940.63 954.79,940.61 953.15,922.70 951.90,921.84 938.97,922.63 937.62,923.83 938.44,940.78"/>
    <poly id="11548677" type="waterway.riverbank" color="181,209,209" fill="1" layer="-4.00" shape="558.32,710.10 556.14,714.29 550.66,716.51 569.67,735.65 576.09,731.87 575.30,728.62 576.56,726.37 577.03,725.31 587.54,713.23 600.83,698.43 600.05,697.58 608.78,686.71 609.98,685.91 610.44,686.19 645.87,643.74 645.59,643.48 645.47,643.20 645.60,642.62 654.42,631.76 655.06,631.60 655.57,631.69 656.05,632.00 656.33,631.63 657.92,631.18 660.15,628.48 672.43,613.05 673.25,612.02 677.59,606.57 709.56,567.00 713.89,561.73 717.64,557.15 752.26,514.83 753.18,512.25 765.88,495.82 824.11,441.55 838.73,417.31 867.86,352.54 915.89,249.70 919.88,209.57 916.20,207.66 910.24,173.95 914.99,164.00 927.48,161.05 941.01,165.15 964.86,128.18 948.32,115.91 953.13,109.38 955.06,110.73 957.10,105.69 956.33,101.55 953.05,97.73 977.06,65.60 975.11,51.74 979.05,44.66 989.97,16.88 1000.63,-11.69 1015.52,-48.45 1040.71,-101.89 1068.67,-158.13 1085.56,-195.29 1086.22,-196.73 1089.89,-202.99 1127.60,-267.11 1171.00,-338.17 1203.05,-395.14 1214.29,-415.61 1225.37,-428.35 1238.26,-436.56 1244.53,-439.79 1290.91,-453.41 1359.74,-445.37 1379.22,-440.52 1400.62,-431.82 1460.28,-405.66 1511.23,-373.49 1520.02,-366.02 1551.10,-347.63 1596.01,-319.61 1631.53,-299.95 1659.08,-278.50 1681.72,-246.76 1718.10,-276.55 1688.22,-293.60 1555.52,-363.44 1548.01,-370.46 1537.60,-377.99 1534.90,-379.95 1518.51,-391.80 1476.70,-420.26 1424.50,-446.46 1412.16,-451.05 1390.08,-459.07 1383.42,-462.49 1381.02,-463.40 1359.39,-467.99 1334.10,-471.60 1296.34,-475.74 1250.80,-473.64 1230.02,-471.79 1225.75,-471.00 1223.22,-470.03 1220.16,-468.19 1217.22,-465.81 1215.11,-463.85 1213.52,-461.91 1212.26,-460.14 1193.83,-424.66 1189.60,-416.55 1186.18,-410.01 1153.01,-348.80 1136.07,-320.43 1117.10,-288.85 1080.90,-228.53 1072.23,-214.11 1066.70,-204.34 1065.44,-196.25 1055.78,-178.35 1013.44,-98.14 1003.72,-70.37 999.09,-56.02 986.29,-27.30 973.19,10.05 952.85,55.48 874.70,206.86 869.98,244.01 853.18,305.95 850.47,316.91 846.80,330.43 844.53,350.41 823.92,399.45 807.96,429.59 798.52,445.77 744.49,485.14 698.08,541.17 694.22,545.88 689.99,551.02 663.07,583.90 664.68,585.15 663.22,587.00 661.57,585.53 651.03,597.65 638.76,612.53 636.40,615.33 626.64,626.94 569.36,696.75 558.32,710.10"/>
    <poly id="11548679" type="natural.water" color="181,209,209" fill="1" layer="-4.00" shape="569.67,735.65 569.09,738.50 569.78,741.00 571.01,742.88 573.09,744.74 575.80,745.07 581.86,741.57 584.43,743.98 588.19,743.98 603.39,739.96 618.64,735.38 620.70,735.32 623.13,735.01 623.24,735.78 632.08,733.84 637.29,732.71 637.60,732.44 637.87,732.13 637.87,731.55 692.14,720.13 692.28,720.55 701.59,718.58 706.24,717.87 737.54,711.71 775.56,691.87 777.27,690.99 849.93,664.58 911.71,638.68 983.60,544.30 995.98,552.32 1011.93,528.71 1006.14,524.91 1013.61,519.03 1054.99,482.87 1059.13,476.72 1106.28,407.89 1118.37,382.47 1128.46,359.37 1129.44,357.06 1129.50,352.48 1132.09,345.86 1136.02,338.05 1143.98,327.24 1148.80,323.72 1261.55,136.61 1261.92,127.43 1256.54,121.76 1302.11,62.27 1333.68,16.92 1330.04,14.27 1348.34,-13.64 1392.48,28.54 1373.33,42.31 1365.20,52.63 1351.22,70.38 1331.06,95.98 1293.55,151.58 1274.86,180.71 1269.14,188.83 1269.65,205.38 1248.68,239.56 1235.68,260.73 1219.72,270.30 1217.35,275.23 1210.86,287.13 1209.52,286.40 1207.59,289.94 1208.93,290.67 1190.56,324.01 1190.93,324.95 1180.14,344.01 1178.87,344.67 1174.95,344.18 1171.85,344.24 1171.11,344.56 1156.91,368.24 1157.17,370.34 1157.79,372.56 1159.45,374.11 1161.30,376.68 1160.25,379.33 1156.69,385.96 1155.60,388.48 1154.16,391.74 1103.78,481.64 1063.70,556.71 1056.99,553.37 1039.05,580.72 1044.84,584.23 1046.69,586.74 1046.30,590.13 1035.20,610.78 1024.59,627.11 1011.02,639.33 1000.50,645.50 931.82,672.89 930.87,670.92 819.95,717.25 797.40,728.68 746.60,746.99 708.92,757.82 617.51,777.34 602.37,780.71 532.66,792.96 466.13,800.26 452.20,801.69 419.74,802.90 368.45,800.24 274.04,793.96 197.99,787.25 196.35,785.28 171.54,769.37 102.03,700.15 14.48,617.60 -37.82,572.44 -81.46,549.52 -187.80,500.94 -246.25,475.36 -257.67,469.88 -323.67,464.77 -358.56,462.88 -388.99,460.81 -413.56,461.19 -436.29,464.61 -466.53,474.62 -493.08,486.92 -517.21,501.06 -536.60,515.84 -547.02,526.60 -544.54,526.63 -548.80,530.23 -553.51,535.08 -558.38,542.01 -564.07,551.66 -566.55,558.84 -568.56,558.92 -572.74,573.44 -577.16,604.80 -580.50,634.87 -583.65,658.99 -588.28,682.54 -593.95,699.20 -600.89,718.47 -620.24,758.57 -624.46,764.35 -627.52,767.69 -636.27,776.07 -661.87,799.32 -696.25,761.47 -681.67,747.23 -674.53,740.36 -669.56,733.35 -662.94,724.02 -650.84,703.24 -636.09,675.06 -631.12,662.57 -627.89,635.71 -625.26,615.96 -618.58,561.95 -604.34,525.80 -594.48,510.48 -583.65,497.15 -579.96,493.29 -562.95,477.35 -531.37,454.52 -506.98,440.75 -503.99,439.49 -475.29,426.91 -442.33,416.30 -414.88,410.86 -379.25,406.94 -353.63,406.66 -351.82,408.71 -329.71,411.21 -292.59,417.05 -268.85,422.03 -245.38,428.45 -218.21,438.13 -190.72,448.90 -143.32,471.73 -109.20,487.31 -75.12,502.86 -40.63,519.04 -9.20,535.55 -8.13,533.89 98.68,633.07 97.44,634.37 104.06,640.66 110.71,646.99 111.95,645.70 152.05,683.35 150.73,684.78 155.86,689.44 160.93,694.14 162.25,692.71 170.74,700.50 206.55,728.62 224.59,735.95 226.39,736.51 273.73,742.99 273.60,745.65 276.72,745.80 276.85,743.14 316.86,745.14 338.86,746.31 365.27,747.91 398.46,748.41 432.58,747.02 451.85,745.50 494.09,740.16 514.51,731.49 550.66,716.51 569.67,735.65"/>
    <poly id="120456813" type="landuse.commercial" color="209,209,204" fill="1" layer="-3.00" shape="361.65,726.69 365.57,670.84 296.68,663.13 296.48,666.69 296.07,673.81 295.87,677.36 295.25,687.32 296.41,687.51 295.27,703.31 294.32,715.30 293.55,715.23 293.03,724.54 324.78,725.53 349.46,725.94 361.65,726.69"/>
    <poly id="120456814" type="amenity.university" color="237,199,199" fill="1" layer="-1.00" shape="377.01,500.05 450.88,506.34 455.79,448.64 485.63,450.94 478.70,493.65 477.74,507.63 519.08,511.69 527.73,399.87 625.70,408.93 645.54,237.58 495.22,223.94 490.64,276.15 479.49,414.39 400.93,407.09 400.63,410.92 399.85,419.97 392.32,419.32 387.46,475.70 387.39,476.48 385.91,476.36 365.99,474.65 365.35,482.07 373.35,482.76 373.47,481.36 377.75,481.73 377.63,483.15 378.44,483.23 377.27,496.78 377.01,500.05"/>
    <poly id="121717655" type="building.yes" color="255,230,230" fill="1" layer="-1.00" shape="789.21,432.50 796.94,420.25 763.62,398.85 758.81,412.77 779.27,425.32 778.40,426.63 789.21,432.50"/>
    <poly id="121717655#1" type="tourism.artwork" color="207,245,201" fill="1" layer="-2.00" shape="789.21,432.50 796.94,420.25 763.62,398.85 758.81,412.77 779.27,425.32 778.40,426.63 789.21,432.50"/>
    <poly id="121717656" type="landuse.construction" color="194,194,130" fill="1" layer="-3.00" shape="834.07,429.36 824.39,441.88 766.02,496.29 753.43,512.75 792.89,543.77 863.39,448.20 852.47,441.19 838.98,432.51 834.07,429.36"/>
    <poly id="121717767" type="leisure.park" color="207,245,201" fill="1" layer="-2.00" shape="886.79,520.27 912.16,538.03 913.49,536.42 912.37,535.01 911.98,533.56 912.09,532.17 912.92,530.66 914.26,529.61 915.87,529.27 917.21,529.50 918.39,530.52 920.77,527.65 923.25,529.71 924.01,528.75 925.77,527.82 927.56,527.90 929.13,529.07 930.05,530.57 930.44,532.10 929.99,533.62 929.20,534.61 932.44,537.28 930.26,539.90 931.41,540.96 932.02,542.26 931.76,543.76 930.99,544.99 929.67,545.90 928.07,546.19 926.69,545.92 925.88,545.18 923.82,547.67 943.09,561.44 901.14,618.04 911.29,625.75 976.84,539.67 905.91,493.58 886.79,520.27"/>
    <poly id="126128623" type="building.yes" color="255,230,230" fill="1" layer="-1.00" shape="1010.91,814.33 1014.88,821.05 1023.87,830.29 1045.69,846.16 1037.52,855.86 1036.41,854.34 1032.49,850.37 1026.99,844.67 1009.30,829.10 1001.03,834.93 994.85,825.60 1010.91,814.33"/>
    <poly id="126128623#1" type="tourism.hotel" color="207,245,201" fill="1" layer="-2.00" shape="1010.91,814.33 1014.88,821.05 1023.87,830.29 1045.69,846.16 1037.52,855.86 1036.41,854.34 1032.49,850.37 1026.99,844.67 1009.30,829.10 1001.03,834.93 994.85,825.60 1010.91,814.33"/>
    <poly id="127177463" type="landuse.grass" color="194,194,130" fill="1" layer="-3.00" shape="640.26,431.32 635.71,482.95 671.05,488.53 672.06,482.60 684.69,463.01 685.40,462.09 684.62,461.49 687.69,457.49 688.40,458.03 689.35,456.81 693.30,459.85 694.06,458.86 710.84,471.76 718.10,462.45 728.16,465.54 717.78,457.77 640.26,431.32"/>
    <poly id="127177463#1" type="leisure.garden" color="207,245,201" fill="1" layer="-2.00" shape="640.26,431.32 635.71,482.95 671.05,488.53 672.06,482.60 684.69,463.01 685.40,462.09 684.62,461.49 687.69,457.49 688.40,458.03 689.35,456.81 693.30,459.85 694.06,458.86 710.84,471.76 718.10,462.45 728.16,465.54 717.78,457.77 640.26,431.32"/>
    <poly id="127178490" type="building.yes" color="255,230,230" fill="1" layer="-1.00" shape="674.39,535.38 651.23,515.75 646.51,512.06 641.85,508.44 637.95,505.40 634.26,510.19 660.50,530.65 657.04,535.09 643.89,524.84 642.85,526.17 629.79,515.99 627.88,518.47 627.18,519.38 664.11,549.54 674.39,535.38"/>
    <poly id="127178491" type="building.yes" color="255,230,230" fill="1" layer="-1.00" shape="666.73,496.11 651.23,515.75 674.39,535.38 695.30,507.72 684.53,499.49 681.85,499.02 666.73,496.11"/>
    <poly id="128565935" type="building.residential" color="255,230,230" fill="1" layer="-1.00" shape="954.64,773.68 955.57,773.37 954.73,770.85 953.72,771.16 952.97,768.80 960.62,766.31 962.22,769.39 971.12,786.46 975.48,799.13 963.54,803.13 951.59,807.13 951.03,805.42 947.32,794.43 947.25,794.14 961.00,789.58 959.52,785.14 958.58,785.46 954.64,773.68"/>
    <poly id="128565938" type="building.residential" color="255,230,230" fill="1" layer="-1.00" shape="897.81,794.14 909.98,789.41 910.95,791.88 913.92,799.54 916.81,806.95 921.27,805.47 920.53,803.29 926.94,801.14 930.65,812.22 931.23,813.95 919.85,817.76 908.46,821.57 897.81,794.14"/>
    <poly id="128565939" type="building.residential" color="255,230,230" fill="1" layer="-1.00" shape="951.59,807.13 941.41,810.53 931.23,813.95 930.65,812.22 926.94,801.14 942.09,796.08 934.46,778.10 933.83,776.40 904.11,774.84 903.54,773.40 901.26,767.54 900.60,765.85 936.09,767.71 936.77,769.34 938.52,773.50 939.22,775.15 939.87,776.71 936.55,776.55 944.18,794.57 946.41,793.83 946.65,794.54 947.32,794.43 951.03,805.42 951.59,807.13"/>
    <poly id="128565940" type="building.commercial" color="255,230,230" fill="1" layer="-1.00" shape="995.87,773.83 976.50,773.07 973.65,767.63 973.67,767.02 990.92,767.70 990.89,767.94 990.95,768.19 991.09,768.38 991.31,768.51 991.55,768.55 991.71,768.52 995.87,773.83"/>
    <poly id="129400887" type="building.residential" color="255,230,230" fill="1" layer="-1.00" shape="613.23,905.10 621.82,930.87 607.37,935.66 598.78,909.89 613.23,905.10"/>
    <poly id="130777430" type="building.residential" color="255,230,230" fill="1" layer="-1.00" shape="612.76,440.82 612.48,444.27 612.06,449.39 611.26,459.20 610.75,465.39 632.82,467.19 635.84,430.32 617.06,428.79 616.52,435.46 616.06,441.08 612.76,440.82"/>
    <poly id="131765142" type="building.yes" color="255,230,230" fill="1" layer="-1.00" shape="703.03,395.91 721.62,397.67 724.63,395.48 727.30,395.75 728.42,397.54 730.97,397.65 749.05,408.59 749.89,410.65 758.40,413.80 758.81,412.77 763.62,398.85 735.32,381.44 734.24,379.22 732.65,378.30 731.25,378.23 729.56,379.11 728.36,381.10 722.53,380.55 718.66,380.31 708.54,379.32 707.49,389.94 703.67,389.56 703.03,395.91"/>
    <poly id="131765145" type="building.yes" color="255,230,230" fill="1" layer="-1.00" shape="650.34,408.30 670.19,410.48 671.58,397.65 651.73,395.47 650.34,408.30"/>
    <poly id="131765147" type="building.yes" color="255,230,230" fill="1" layer="-1.00" shape="744.68,426.28 747.49,428.15 752.15,431.79 758.40,413.80 749.89,410.65 744.68,426.28"/>
    <poly id="131765148" type="building.yes" color="255,230,230" fill="1" layer="-1.00" shape="674.01,377.61 676.91,377.90 675.22,391.83 672.77,415.19 669.72,414.83 670.19,410.48 671.58,397.65 674.01,377.61"/>
    <poly id="131783066" type="building.yes" color="255,230,230" fill="1" layer="-1.00" shape="666.73,496.11 651.23,515.75 646.51,512.06 653.06,502.98 646.84,501.50 641.85,508.44 637.95,505.40 644.95,495.31 647.20,492.40 666.73,496.11"/>
    <poly id="131835792" type="building.yes" color="255,230,230" fill="1" layer="-1.00" shape="618.13,559.09 598.01,543.62 606.48,533.01 612.88,537.95 626.60,548.57 618.13,559.09"/>
    <poly id="131835793" type="building.yes" color="255,230,230" fill="1" layer="-1.00" shape="587.61,535.44 574.91,525.06 578.89,515.03 582.38,515.25 595.87,524.80 587.61,535.44"/>
    <poly id="131835794" type="building.university" color="255,230,230" fill="1" layer="-1.00" shape="598.01,543.62 587.61,535.44 595.87,524.80 603.07,530.37 606.48,533.01 598.01,543.62"/>
    <poly id="131835795" type="building.yes" color="255,230,230" fill="1" layer="-1.00" shape="664.11,549.54 652.87,563.10 641.04,553.87 646.64,546.46 621.57,526.66 627.18,519.38 664.11,549.54"/>
    <poly id="131835796" type="building.yes" color="255,230,230" fill="1" layer="-1.00" shape="652.87,563.10 641.84,577.40 618.13,559.09 626.60,548.57 638.16,557.51 641.04,553.87 652.87,563.10"/>
    <poly id="131835797" type="building.yes" color="255,230,230" fill="1" layer="-1.00" shape="612.88,537.95 606.48,533.01 603.07,530.37 613.78,517.54 627.88,518.47 627.18,519.38 621.57,526.66 612.88,537.95"/>
    <poly id="131835798" type="building.yes" color="255,230,230" fill="1" layer="-1.00" shape="654.78,367.40 651.73,395.47 650.34,408.30 649.86,412.69 669.72,414.83 670.19,410.48 671.58,397.65 674.01,377.61 674.80,369.56 669.74,369.01 663.97,368.40 658.59,367.82 654.78,367.40"/>
    <poly id="131835798#1" type="historic.yes" color="128,255,128" fill="1" layer="-1.00" shape="654.78,367.40 651.73,395.47 650.34,408.30 649.86,412.69 669.72,414.83 670.19,410.48 671.58,397.65 674.01,377.61 674.80,369.56 669.74,369.01 663.97,368.40 658.59,367.82 654.78,367.40"/>
    <poly id="132460635" type="amenity.fountain" color="237,199,199" fill="1" layer="-1.00" shape="680.31,398.43 680.91,400.42 682.40,401.88 684.34,402.28 686.02,401.72 687.51,400.23 687.91,398.13 687.30,396.18 685.81,394.71 683.88,394.29 682.20,394.84 680.70,396.32 680.31,398.43"/>
    <poly id="133885751" type="amenity.fountain" color="237,199,199" fill="1" layer="-1.00" shape="925.19,539.47 926.19,538.19 924.87,537.16 924.65,535.51 923.05,535.73 921.88,534.81 920.92,536.02 919.22,536.26 919.44,537.90 918.43,539.18 919.77,540.23 919.98,541.79 921.48,541.59 922.74,542.57 923.77,541.27 925.40,541.03 925.19,539.47"/>
    <poly id="133885751#1" type="natural.water" color="181,209,209" fill="1" layer="-4.00" shape="925.19,539.47 926.19,538.19 924.87,537.16 924.65,535.51 923.05,535.73 921.88,534.81 920.92,536.02 919.22,536.26 919.44,537.90 918.43,539.18 919.77,540.23 919.98,541.79 921.48,541.59 922.74,542.57 923.77,541.27 925.40,541.03 925.19,539.47"/>
    <poly id="133885752" type="building.roof" color="255,230,230" fill="1" layer="-1.00" shape="850.40,581.44 848.54,584.09 846.45,587.05 826.24,571.72 828.58,568.72 837.13,557.75 835.80,556.71 854.44,532.78 856.12,534.10 868.27,518.50 866.39,517.03 893.04,483.02 875.07,471.61 860.26,462.20 862.46,459.52 864.78,456.72 907.18,484.64 965.21,522.88 987.05,537.31 910.48,637.41 899.01,628.56 893.97,624.68 895.97,622.11 898.17,619.30 909.77,628.25 943.67,583.89 977.51,539.61 960.83,528.66 922.44,503.65 902.61,490.74 898.02,487.76 859.81,537.35 835.03,569.51 848.68,580.11 850.40,581.44"/>
    <poly id="133887411" type="building.yes" color="255,230,230" fill="1" layer="-1.00" shape="893.97,624.68 881.14,640.87 878.60,643.50 875.51,645.63 872.60,647.28 868.69,648.82 863.73,650.07 858.11,650.45 853.06,649.70 848.17,652.43 852.53,662.84 862.45,658.40 861.69,656.98 866.22,656.40 870.91,655.07 875.22,653.32 879.07,651.13 882.97,648.38 886.16,645.25 899.01,628.56 893.97,624.68"/>
    <poly id="145276462" type="building.yes" color="255,230,230" fill="1" layer="-1.00" shape="466.49,506.68 477.82,506.74 478.70,493.65 474.87,493.36 475.76,484.60 479.88,484.97 480.58,480.75 491.54,482.90 492.17,477.52 482.93,475.73 484.25,459.37 479.95,458.67 480.26,451.96 471.22,451.05 466.49,506.68"/>
    <poly id="145662520" type="waterway.canal" color="181,209,209" fill="0" layer="-4.00" shape="824.64,423.78 804.36,449.91 757.50,488.65 703.74,553.88 657.00,609.75 647.25,621.86 592.87,687.04 572.71,711.70 527.96,767.54"/>
    <poly id="147699484" type="building.yes" color="255,230,230" fill="1" layer="-1.00" shape="581.01,487.40 579.32,496.32 567.22,493.56 566.98,498.19 560.81,497.52 559.39,513.70 545.70,513.06 548.35,478.78 565.73,479.78 565.67,484.75 581.01,487.40"/>
    <poly id="147699490" type="building.yes" color="255,230,230" fill="1" layer="-1.00" shape="574.91,525.06 559.39,513.70 560.81,497.52 566.98,498.19 566.10,505.33 575.99,512.70 575.59,514.80 578.89,515.03 574.91,525.06"/>
    <poly id="150634669" type="building.yes" color="255,230,230" fill="1" layer="-1.00" shape="609.13,590.43 597.24,581.73 576.61,569.38 553.40,557.68 529.20,548.08 506.37,541.97 489.26,538.41 468.83,535.58 453.14,533.86 331.17,523.67 321.64,523.27 302.83,525.07 269.75,527.43 236.64,531.91 229.50,533.35 232.69,499.50 273.95,501.81 328.73,505.72 337.39,506.53 455.22,517.20 470.61,518.84 492.23,521.63 511.63,525.25 536.54,531.64 562.11,541.33 586.49,553.15 608.01,566.66 620.11,575.40 609.13,590.43"/>
    <poly id="150634669#1" type="landuse.commercial" color="209,209,204" fill="1" layer="-3.00" shape="609.13,590.43 597.24,581.73 576.61,569.38 553.40,557.68 529.20,548.08 506.37,541.97 489.26,538.41 468.83,535.58 453.14,533.86 331.17,523.67 321.64,523.27 302.83,525.07 269.75,527.43 236.64,531.91 229.50,533.35 232.69,499.50 273.95,501.81 328.73,505.72 337.39,506.53 455.22,517.20 470.61,518.84 492.23,521.63 511.63,525.25 536.54,531.64 562.11,541.33 586.49,553.15 608.01,566.66 620.11,575.40 609.13,590.43"/>
    <poly id="154321042" type="building.yes" color="255,230,230" fill="1" layer="-1.00" shape="946.98,894.26 963.39,892.76 958.87,879.14 945.43,887.51 946.98,894.26"/>
    <poly id="158844339" type="building.yes" color="255,230,230" fill="1" layer="-1.00" shape="456.84,596.88 454.51,619.30 485.85,622.21 512.26,683.78 530.60,676.58 497.77,599.96 456.84,596.88"/>
    <poly id="159534658" type="waterway.river" color="181,209,209" fill="0" layer="-4.00" shape="1607.07,-104.26 1574.61,-99.64 1516.36,-75.51 1464.38,-60.95 1411.08,-22.42 1373.11,16.41 1336.37,57.49 1287.79,126.35 1266.82,159.81 1172.76,319.59 1155.05,350.71 1124.76,400.46 1097.25,451.37 1065.80,500.83 1028.08,549.88 1015.03,569.74 998.76,595.09 976.00,619.05 938.49,646.67 871.06,675.53 831.45,690.88 783.67,710.30 709.05,739.70 619.56,755.36 601.49,757.30 527.96,767.54 440.50,780.26 406.08,778.09 291.18,767.44 270.20,764.92 212.25,754.68 187.93,744.54 116.23,678.91 47.55,618.88 10.73,586.37 -16.35,562.19 -54.82,535.44 -113.75,505.62 -209.40,461.89 -304.71,433.52 -342.83,432.36 -389.25,431.06 -416.30,435.31 -437.22,438.58 -458.06,445.15 -478.40,453.36 -502.10,465.85 -520.86,476.99 -539.39,490.54 -556.88,505.29 -576.71,527.97 -585.58,545.43 -586.98,549.35 -592.54,564.15 -595.31,576.45 -596.85,588.83 -597.49,597.84 -601.03,631.79 -604.83,656.92 -610.94,685.44 -621.73,708.89 -629.51,725.95 -635.99,734.88 -640.16,741.03 -653.98,757.02 -672.85,777.17 -694.87,794.43 -724.29,817.81 -756.77,837.17 -790.47,854.16 -817.67,862.82 -846.46,868.88 -878.72,873.73"/>
    <poly id="15968753" type="building.yes" color="255,230,230" fill="1" layer="-1.00" shape="891.57,387.39 864.12,433.62 938.53,477.75 966.34,432.03 929.48,409.96 891.57,387.39"/>
    <poly id="15968753#1" type="tourism.museum" color="207,245,201" fill="1" layer="-2.00" shape="891.57,387.39 864.12,433.62 938.53,477.75 966.34,432.03 929.48,409.96 891.57,387.39"/>
    <poly id="15968754" type="building.yes" color="255,230,230" fill="1" layer="-1.00" shape="884.88,423.69 884.11,423.24 891.74,410.26 892.66,410.80 893.20,409.89 905.39,417.01 904.92,417.80 905.70,418.27 903.50,422.01 899.15,419.46 895.80,425.16 899.88,427.55 897.82,431.07 896.89,430.53 896.33,431.48 884.40,424.50 884.88,423.69"/>