<configuration>
    <input>
        <net-file value="basicnode.net.xml"/>
        <route-files value="basicnode.rou.xml"/>
		<gui-settings-file value="runSimulation.settings.xml"/>
		<additional-files value="GUIPassegerRequest.poly.xml"/>
    </input>
    <output>
        <netstate-dump value="output_dump.xml"/>
    </output>
    <time>
        <begin value="0"/>
        <end value="50"/>
    </time>
</configuration>